---------- Begin Simulation Statistics ----------
simSeconds                                   0.156845                       # Number of seconds simulated (Second)
simTicks                                 156845340000                       # Number of ticks simulated (Tick)
finalTick                                16939330873000                       # Number of ticks from beginning of simulation (restored from checkpoints and never reset) (Tick)
simFreq                                  1000000000000                       # The number of ticks per simulated second ((Tick/Second))
hostSeconds                                    395.41                       # Real time elapsed on the host (Second)
hostTickRate                                396662395                       # The number of ticks simulated per host second (ticks/s) ((Tick/Second))
hostMemory                                    8579472                       # Number of bytes of host memory used (Byte)
simInsts                                    304835394                       # Number of instructions simulated (Count)
simOps                                      304881833                       # Number of ops (including micro ops) simulated (Count)
hostInstRate                                   770929                       # Simulator instruction rate (inst/s) ((Count/Second))
hostOpRate                                     771047                       # Simulator op (including micro ops) rate (op/s) ((Count/Second))
board.bridge.power_state.pwrStateResidencyTicks::UNDEFINED 16939330873000                       # Cumulative time (in ticks) in various power states (Tick)
board.cache_hierarchy.dptw_caches0.demandHits::processor.cores0.core.mmu.dtb.walker          207                       # number of demand (read+write) hits (Count)
board.cache_hierarchy.dptw_caches0.demandHits::total          207                       # number of demand (read+write) hits (Count)
board.cache_hierarchy.dptw_caches0.overallHits::processor.cores0.core.mmu.dtb.walker          207                       # number of overall hits (Count)
board.cache_hierarchy.dptw_caches0.overallHits::total          207                       # number of overall hits (Count)
board.cache_hierarchy.dptw_caches0.demandMisses::processor.cores0.core.mmu.dtb.walker           26                       # number of demand (read+write) misses (Count)
board.cache_hierarchy.dptw_caches0.demandMisses::total           26                       # number of demand (read+write) misses (Count)
board.cache_hierarchy.dptw_caches0.overallMisses::processor.cores0.core.mmu.dtb.walker           26                       # number of overall misses (Count)
board.cache_hierarchy.dptw_caches0.overallMisses::total           26                       # number of overall misses (Count)
board.cache_hierarchy.dptw_caches0.demandMissLatency::processor.cores0.core.mmu.dtb.walker      1234000                       # number of demand (read+write) miss ticks (Tick)
board.cache_hierarchy.dptw_caches0.demandMissLatency::total      1234000                       # number of demand (read+write) miss ticks (Tick)
board.cache_hierarchy.dptw_caches0.overallMissLatency::processor.cores0.core.mmu.dtb.walker      1234000                       # number of overall miss ticks (Tick)
board.cache_hierarchy.dptw_caches0.overallMissLatency::total      1234000                       # number of overall miss ticks (Tick)
board.cache_hierarchy.dptw_caches0.demandAccesses::processor.cores0.core.mmu.dtb.walker          233                       # number of demand (read+write) accesses (Count)
board.cache_hierarchy.dptw_caches0.demandAccesses::total          233                       # number of demand (read+write) accesses (Count)
board.cache_hierarchy.dptw_caches0.overallAccesses::processor.cores0.core.mmu.dtb.walker          233                       # number of overall (read+write) accesses (Count)
board.cache_hierarchy.dptw_caches0.overallAccesses::total          233                       # number of overall (read+write) accesses (Count)
board.cache_hierarchy.dptw_caches0.demandMissRate::processor.cores0.core.mmu.dtb.walker     0.111588                       # miss rate for demand accesses (Ratio)
board.cache_hierarchy.dptw_caches0.demandMissRate::total     0.111588                       # miss rate for demand accesses (Ratio)
board.cache_hierarchy.dptw_caches0.overallMissRate::processor.cores0.core.mmu.dtb.walker     0.111588                       # miss rate for overall accesses (Ratio)
board.cache_hierarchy.dptw_caches0.overallMissRate::total     0.111588                       # miss rate for overall accesses (Ratio)
board.cache_hierarchy.dptw_caches0.demandAvgMissLatency::processor.cores0.core.mmu.dtb.walker 47461.538462                       # average overall miss latency in ticks ((Tick/Count))
board.cache_hierarchy.dptw_caches0.demandAvgMissLatency::total 47461.538462                       # average overall miss latency in ticks ((Tick/Count))
board.cache_hierarchy.dptw_caches0.overallAvgMissLatency::processor.cores0.core.mmu.dtb.walker 47461.538462                       # average overall miss latency ((Tick/Count))
board.cache_hierarchy.dptw_caches0.overallAvgMissLatency::total 47461.538462                       # average overall miss latency ((Tick/Count))
board.cache_hierarchy.dptw_caches0.blockedCycles::no_mshrs            0                       # number of cycles access was blocked (Cycle)
board.cache_hierarchy.dptw_caches0.blockedCycles::no_targets            0                       # number of cycles access was blocked (Cycle)
board.cache_hierarchy.dptw_caches0.blockedCauses::no_mshrs            0                       # number of times access was blocked (Count)
board.cache_hierarchy.dptw_caches0.blockedCauses::no_targets            0                       # number of times access was blocked (Count)
board.cache_hierarchy.dptw_caches0.avgBlocked::no_mshrs          nan                       # average number of cycles each access was blocked ((Cycle/Count))
board.cache_hierarchy.dptw_caches0.avgBlocked::no_targets          nan                       # average number of cycles each access was blocked ((Cycle/Count))
board.cache_hierarchy.dptw_caches0.demandMshrMisses::processor.cores0.core.mmu.dtb.walker           26                       # number of demand (read+write) MSHR misses (Count)
board.cache_hierarchy.dptw_caches0.demandMshrMisses::total           26                       # number of demand (read+write) MSHR misses (Count)
board.cache_hierarchy.dptw_caches0.overallMshrMisses::processor.cores0.core.mmu.dtb.walker           26                       # number of overall MSHR misses (Count)
board.cache_hierarchy.dptw_caches0.overallMshrMisses::total           26                       # number of overall MSHR misses (Count)
board.cache_hierarchy.dptw_caches0.demandMshrMissLatency::processor.cores0.core.mmu.dtb.walker      1208000                       # number of demand (read+write) MSHR miss ticks (Tick)
board.cache_hierarchy.dptw_caches0.demandMshrMissLatency::total      1208000                       # number of demand (read+write) MSHR miss ticks (Tick)
board.cache_hierarchy.dptw_caches0.overallMshrMissLatency::processor.cores0.core.mmu.dtb.walker      1208000                       # number of overall MSHR miss ticks (Tick)
board.cache_hierarchy.dptw_caches0.overallMshrMissLatency::total      1208000                       # number of overall MSHR miss ticks (Tick)
board.cache_hierarchy.dptw_caches0.demandMshrMissRate::processor.cores0.core.mmu.dtb.walker     0.111588                       # mshr miss ratio for demand accesses (Ratio)
board.cache_hierarchy.dptw_caches0.demandMshrMissRate::total     0.111588                       # mshr miss ratio for demand accesses (Ratio)
board.cache_hierarchy.dptw_caches0.overallMshrMissRate::processor.cores0.core.mmu.dtb.walker     0.111588                       # mshr miss ratio for overall accesses (Ratio)
board.cache_hierarchy.dptw_caches0.overallMshrMissRate::total     0.111588                       # mshr miss ratio for overall accesses (Ratio)
board.cache_hierarchy.dptw_caches0.demandAvgMshrMissLatency::processor.cores0.core.mmu.dtb.walker 46461.538462                       # average overall mshr miss latency ((Tick/Count))
board.cache_hierarchy.dptw_caches0.demandAvgMshrMissLatency::total 46461.538462                       # average overall mshr miss latency ((Tick/Count))
board.cache_hierarchy.dptw_caches0.overallAvgMshrMissLatency::processor.cores0.core.mmu.dtb.walker 46461.538462                       # average overall mshr miss latency ((Tick/Count))
board.cache_hierarchy.dptw_caches0.overallAvgMshrMissLatency::total 46461.538462                       # average overall mshr miss latency ((Tick/Count))
board.cache_hierarchy.dptw_caches0.replacements            0                       # number of replacements (Count)
board.cache_hierarchy.dptw_caches0.ReadReq.hits::processor.cores0.core.mmu.dtb.walker          207                       # number of ReadReq hits (Count)
board.cache_hierarchy.dptw_caches0.ReadReq.hits::total          207                       # number of ReadReq hits (Count)
board.cache_hierarchy.dptw_caches0.ReadReq.misses::processor.cores0.core.mmu.dtb.walker           26                       # number of ReadReq misses (Count)
board.cache_hierarchy.dptw_caches0.ReadReq.misses::total           26                       # number of ReadReq misses (Count)
board.cache_hierarchy.dptw_caches0.ReadReq.missLatency::processor.cores0.core.mmu.dtb.walker      1234000                       # number of ReadReq miss ticks (Tick)
board.cache_hierarchy.dptw_caches0.ReadReq.missLatency::total      1234000                       # number of ReadReq miss ticks (Tick)
board.cache_hierarchy.dptw_caches0.ReadReq.accesses::processor.cores0.core.mmu.dtb.walker          233                       # number of ReadReq accesses(hits+misses) (Count)
board.cache_hierarchy.dptw_caches0.ReadReq.accesses::total          233                       # number of ReadReq accesses(hits+misses) (Count)
board.cache_hierarchy.dptw_caches0.ReadReq.missRate::processor.cores0.core.mmu.dtb.walker     0.111588                       # miss rate for ReadReq accesses (Ratio)
board.cache_hierarchy.dptw_caches0.ReadReq.missRate::total     0.111588                       # miss rate for ReadReq accesses (Ratio)
board.cache_hierarchy.dptw_caches0.ReadReq.avgMissLatency::processor.cores0.core.mmu.dtb.walker 47461.538462                       # average ReadReq miss latency ((Tick/Count))
board.cache_hierarchy.dptw_caches0.ReadReq.avgMissLatency::total 47461.538462                       # average ReadReq miss latency ((Tick/Count))
board.cache_hierarchy.dptw_caches0.ReadReq.mshrMisses::processor.cores0.core.mmu.dtb.walker           26                       # number of ReadReq MSHR misses (Count)
board.cache_hierarchy.dptw_caches0.ReadReq.mshrMisses::total           26                       # number of ReadReq MSHR misses (Count)
board.cache_hierarchy.dptw_caches0.ReadReq.mshrMissLatency::processor.cores0.core.mmu.dtb.walker      1208000                       # number of ReadReq MSHR miss ticks (Tick)
board.cache_hierarchy.dptw_caches0.ReadReq.mshrMissLatency::total      1208000                       # number of ReadReq MSHR miss ticks (Tick)
board.cache_hierarchy.dptw_caches0.ReadReq.mshrMissRate::processor.cores0.core.mmu.dtb.walker     0.111588                       # mshr miss rate for ReadReq accesses (Ratio)
board.cache_hierarchy.dptw_caches0.ReadReq.mshrMissRate::total     0.111588                       # mshr miss rate for ReadReq accesses (Ratio)
board.cache_hierarchy.dptw_caches0.ReadReq.avgMshrMissLatency::processor.cores0.core.mmu.dtb.walker 46461.538462                       # average ReadReq mshr miss latency ((Tick/Count))
board.cache_hierarchy.dptw_caches0.ReadReq.avgMshrMissLatency::total 46461.538462                       # average ReadReq mshr miss latency ((Tick/Count))
board.cache_hierarchy.dptw_caches0.power_state.pwrStateResidencyTicks::UNDEFINED 16939330873000                       # Cumulative time (in ticks) in various power states (Tick)
board.cache_hierarchy.dptw_caches0.tags.tagsInUse    21.332049                       # Average ticks per tags in use ((Tick/Count))
board.cache_hierarchy.dptw_caches0.tags.totalRefs            3                       # Total number of references to valid blocks. (Count)
board.cache_hierarchy.dptw_caches0.tags.sampledRefs            2                       # Sample count of references to valid blocks. (Count)
board.cache_hierarchy.dptw_caches0.tags.avgRefs     1.500000                       # Average number of references to valid blocks. ((Count/Count))
board.cache_hierarchy.dptw_caches0.tags.warmupTick 16782857005000                       # The tick when the warmup percentage was hit. (Tick)
board.cache_hierarchy.dptw_caches0.tags.occupancies::processor.cores0.core.mmu.dtb.walker    21.332049                       # Average occupied blocks per tick, per requestor ((Count/Tick))
board.cache_hierarchy.dptw_caches0.tags.avgOccs::processor.cores0.core.mmu.dtb.walker     0.166657                       # Average percentage of cache occupancy ((Ratio/Tick))
board.cache_hierarchy.dptw_caches0.tags.avgOccs::total     0.166657                       # Average percentage of cache occupancy ((Ratio/Tick))
board.cache_hierarchy.dptw_caches0.tags.occupanciesTaskId::1024           24                       # Occupied blocks per task id (Count)
board.cache_hierarchy.dptw_caches0.tags.ageTaskId_1024::3            1                       # Occupied blocks per task id, per block age (Count)
board.cache_hierarchy.dptw_caches0.tags.ageTaskId_1024::4           23                       # Occupied blocks per task id, per block age (Count)
board.cache_hierarchy.dptw_caches0.tags.ratioOccsTaskId::1024     0.187500                       # Ratio of occupied blocks and all blocks, per task id (Ratio)
board.cache_hierarchy.dptw_caches0.tags.tagAccesses          958                       # Number of tag accesses (Count)
board.cache_hierarchy.dptw_caches0.tags.dataAccesses          958                       # Number of data accesses (Count)
board.cache_hierarchy.dptw_caches0.tags.power_state.pwrStateResidencyTicks::UNDEFINED 16939330873000                       # Cumulative time (in ticks) in various power states (Tick)
board.cache_hierarchy.dptw_caches1.demandHits::processor.cores1.core.mmu.dtb.walker          224                       # number of demand (read+write) hits (Count)
board.cache_hierarchy.dptw_caches1.demandHits::total          224                       # number of demand (read+write) hits (Count)
board.cache_hierarchy.dptw_caches1.overallHits::processor.cores1.core.mmu.dtb.walker          224                       # number of overall hits (Count)
board.cache_hierarchy.dptw_caches1.overallHits::total          224                       # number of overall hits (Count)
board.cache_hierarchy.dptw_caches1.demandMisses::processor.cores1.core.mmu.dtb.walker           22                       # number of demand (read+write) misses (Count)
board.cache_hierarchy.dptw_caches1.demandMisses::total           22                       # number of demand (read+write) misses (Count)
board.cache_hierarchy.dptw_caches1.overallMisses::processor.cores1.core.mmu.dtb.walker           22                       # number of overall misses (Count)
board.cache_hierarchy.dptw_caches1.overallMisses::total           22                       # number of overall misses (Count)
board.cache_hierarchy.dptw_caches1.demandMissLatency::processor.cores1.core.mmu.dtb.walker       828000                       # number of demand (read+write) miss ticks (Tick)
board.cache_hierarchy.dptw_caches1.demandMissLatency::total       828000                       # number of demand (read+write) miss ticks (Tick)
board.cache_hierarchy.dptw_caches1.overallMissLatency::processor.cores1.core.mmu.dtb.walker       828000                       # number of overall miss ticks (Tick)
board.cache_hierarchy.dptw_caches1.overallMissLatency::total       828000                       # number of overall miss ticks (Tick)
board.cache_hierarchy.dptw_caches1.demandAccesses::processor.cores1.core.mmu.dtb.walker          246                       # number of demand (read+write) accesses (Count)
board.cache_hierarchy.dptw_caches1.demandAccesses::total          246                       # number of demand (read+write) accesses (Count)
board.cache_hierarchy.dptw_caches1.overallAccesses::processor.cores1.core.mmu.dtb.walker          246                       # number of overall (read+write) accesses (Count)
board.cache_hierarchy.dptw_caches1.overallAccesses::total          246                       # number of overall (read+write) accesses (Count)
board.cache_hierarchy.dptw_caches1.demandMissRate::processor.cores1.core.mmu.dtb.walker     0.089431                       # miss rate for demand accesses (Ratio)
board.cache_hierarchy.dptw_caches1.demandMissRate::total     0.089431                       # miss rate for demand accesses (Ratio)
board.cache_hierarchy.dptw_caches1.overallMissRate::processor.cores1.core.mmu.dtb.walker     0.089431                       # miss rate for overall accesses (Ratio)
board.cache_hierarchy.dptw_caches1.overallMissRate::total     0.089431                       # miss rate for overall accesses (Ratio)
board.cache_hierarchy.dptw_caches1.demandAvgMissLatency::processor.cores1.core.mmu.dtb.walker 37636.363636                       # average overall miss latency in ticks ((Tick/Count))
board.cache_hierarchy.dptw_caches1.demandAvgMissLatency::total 37636.363636                       # average overall miss latency in ticks ((Tick/Count))
board.cache_hierarchy.dptw_caches1.overallAvgMissLatency::processor.cores1.core.mmu.dtb.walker 37636.363636                       # average overall miss latency ((Tick/Count))
board.cache_hierarchy.dptw_caches1.overallAvgMissLatency::total 37636.363636                       # average overall miss latency ((Tick/Count))
board.cache_hierarchy.dptw_caches1.blockedCycles::no_mshrs            0                       # number of cycles access was blocked (Cycle)
board.cache_hierarchy.dptw_caches1.blockedCycles::no_targets            0                       # number of cycles access was blocked (Cycle)
board.cache_hierarchy.dptw_caches1.blockedCauses::no_mshrs            0                       # number of times access was blocked (Count)
board.cache_hierarchy.dptw_caches1.blockedCauses::no_targets            0                       # number of times access was blocked (Count)
board.cache_hierarchy.dptw_caches1.avgBlocked::no_mshrs          nan                       # average number of cycles each access was blocked ((Cycle/Count))
board.cache_hierarchy.dptw_caches1.avgBlocked::no_targets          nan                       # average number of cycles each access was blocked ((Cycle/Count))
board.cache_hierarchy.dptw_caches1.writebacks::writebacks            5                       # number of writebacks (Count)
board.cache_hierarchy.dptw_caches1.writebacks::total            5                       # number of writebacks (Count)
board.cache_hierarchy.dptw_caches1.demandMshrMisses::processor.cores1.core.mmu.dtb.walker           22                       # number of demand (read+write) MSHR misses (Count)
board.cache_hierarchy.dptw_caches1.demandMshrMisses::total           22                       # number of demand (read+write) MSHR misses (Count)
board.cache_hierarchy.dptw_caches1.overallMshrMisses::processor.cores1.core.mmu.dtb.walker           22                       # number of overall MSHR misses (Count)
board.cache_hierarchy.dptw_caches1.overallMshrMisses::total           22                       # number of overall MSHR misses (Count)
board.cache_hierarchy.dptw_caches1.demandMshrMissLatency::processor.cores1.core.mmu.dtb.walker       806000                       # number of demand (read+write) MSHR miss ticks (Tick)
board.cache_hierarchy.dptw_caches1.demandMshrMissLatency::total       806000                       # number of demand (read+write) MSHR miss ticks (Tick)
board.cache_hierarchy.dptw_caches1.overallMshrMissLatency::processor.cores1.core.mmu.dtb.walker       806000                       # number of overall MSHR miss ticks (Tick)
board.cache_hierarchy.dptw_caches1.overallMshrMissLatency::total       806000                       # number of overall MSHR miss ticks (Tick)
board.cache_hierarchy.dptw_caches1.demandMshrMissRate::processor.cores1.core.mmu.dtb.walker     0.089431                       # mshr miss ratio for demand accesses (Ratio)
board.cache_hierarchy.dptw_caches1.demandMshrMissRate::total     0.089431                       # mshr miss ratio for demand accesses (Ratio)
board.cache_hierarchy.dptw_caches1.overallMshrMissRate::processor.cores1.core.mmu.dtb.walker     0.089431                       # mshr miss ratio for overall accesses (Ratio)
board.cache_hierarchy.dptw_caches1.overallMshrMissRate::total     0.089431                       # mshr miss ratio for overall accesses (Ratio)
board.cache_hierarchy.dptw_caches1.demandAvgMshrMissLatency::processor.cores1.core.mmu.dtb.walker 36636.363636                       # average overall mshr miss latency ((Tick/Count))
board.cache_hierarchy.dptw_caches1.demandAvgMshrMissLatency::total 36636.363636                       # average overall mshr miss latency ((Tick/Count))
board.cache_hierarchy.dptw_caches1.overallAvgMshrMissLatency::processor.cores1.core.mmu.dtb.walker 36636.363636                       # average overall mshr miss latency ((Tick/Count))
board.cache_hierarchy.dptw_caches1.overallAvgMshrMissLatency::total 36636.363636                       # average overall mshr miss latency ((Tick/Count))
board.cache_hierarchy.dptw_caches1.replacements            5                       # number of replacements (Count)
board.cache_hierarchy.dptw_caches1.ReadReq.hits::processor.cores1.core.mmu.dtb.walker          224                       # number of ReadReq hits (Count)
board.cache_hierarchy.dptw_caches1.ReadReq.hits::total          224                       # number of ReadReq hits (Count)
board.cache_hierarchy.dptw_caches1.ReadReq.misses::processor.cores1.core.mmu.dtb.walker           22                       # number of ReadReq misses (Count)
board.cache_hierarchy.dptw_caches1.ReadReq.misses::total           22                       # number of ReadReq misses (Count)
board.cache_hierarchy.dptw_caches1.ReadReq.missLatency::processor.cores1.core.mmu.dtb.walker       828000                       # number of ReadReq miss ticks (Tick)
board.cache_hierarchy.dptw_caches1.ReadReq.missLatency::total       828000                       # number of ReadReq miss ticks (Tick)
board.cache_hierarchy.dptw_caches1.ReadReq.accesses::processor.cores1.core.mmu.dtb.walker          246                       # number of ReadReq accesses(hits+misses) (Count)
board.cache_hierarchy.dptw_caches1.ReadReq.accesses::total          246                       # number of ReadReq accesses(hits+misses) (Count)
board.cache_hierarchy.dptw_caches1.ReadReq.missRate::processor.cores1.core.mmu.dtb.walker     0.089431                       # miss rate for ReadReq accesses (Ratio)
board.cache_hierarchy.dptw_caches1.ReadReq.missRate::total     0.089431                       # miss rate for ReadReq accesses (Ratio)
board.cache_hierarchy.dptw_caches1.ReadReq.avgMissLatency::processor.cores1.core.mmu.dtb.walker 37636.363636                       # average ReadReq miss latency ((Tick/Count))
board.cache_hierarchy.dptw_caches1.ReadReq.avgMissLatency::total 37636.363636                       # average ReadReq miss latency ((Tick/Count))
board.cache_hierarchy.dptw_caches1.ReadReq.mshrMisses::processor.cores1.core.mmu.dtb.walker           22                       # number of ReadReq MSHR misses (Count)
board.cache_hierarchy.dptw_caches1.ReadReq.mshrMisses::total           22                       # number of ReadReq MSHR misses (Count)
board.cache_hierarchy.dptw_caches1.ReadReq.mshrMissLatency::processor.cores1.core.mmu.dtb.walker       806000                       # number of ReadReq MSHR miss ticks (Tick)
board.cache_hierarchy.dptw_caches1.ReadReq.mshrMissLatency::total       806000                       # number of ReadReq MSHR miss ticks (Tick)
board.cache_hierarchy.dptw_caches1.ReadReq.mshrMissRate::processor.cores1.core.mmu.dtb.walker     0.089431                       # mshr miss rate for ReadReq accesses (Ratio)
board.cache_hierarchy.dptw_caches1.ReadReq.mshrMissRate::total     0.089431                       # mshr miss rate for ReadReq accesses (Ratio)
board.cache_hierarchy.dptw_caches1.ReadReq.avgMshrMissLatency::processor.cores1.core.mmu.dtb.walker 36636.363636                       # average ReadReq mshr miss latency ((Tick/Count))
board.cache_hierarchy.dptw_caches1.ReadReq.avgMshrMissLatency::total 36636.363636                       # average ReadReq mshr miss latency ((Tick/Count))
board.cache_hierarchy.dptw_caches1.power_state.pwrStateResidencyTicks::UNDEFINED 16939330873000                       # Cumulative time (in ticks) in various power states (Tick)
board.cache_hierarchy.dptw_caches1.tags.tagsInUse    42.852192                       # Average ticks per tags in use ((Tick/Count))
board.cache_hierarchy.dptw_caches1.tags.totalRefs           92                       # Total number of references to valid blocks. (Count)
board.cache_hierarchy.dptw_caches1.tags.sampledRefs            5                       # Sample count of references to valid blocks. (Count)
board.cache_hierarchy.dptw_caches1.tags.avgRefs    18.400000                       # Average number of references to valid blocks. ((Count/Count))
board.cache_hierarchy.dptw_caches1.tags.warmupTick            0                       # The tick when the warmup percentage was hit. (Tick)
board.cache_hierarchy.dptw_caches1.tags.occupancies::processor.cores1.core.mmu.dtb.walker    42.852192                       # Average occupied blocks per tick, per requestor ((Count/Tick))
board.cache_hierarchy.dptw_caches1.tags.avgOccs::processor.cores1.core.mmu.dtb.walker     0.334783                       # Average percentage of cache occupancy ((Ratio/Tick))
board.cache_hierarchy.dptw_caches1.tags.avgOccs::total     0.334783                       # Average percentage of cache occupancy ((Ratio/Tick))
board.cache_hierarchy.dptw_caches1.tags.occupanciesTaskId::1024           45                       # Occupied blocks per task id (Count)
board.cache_hierarchy.dptw_caches1.tags.ageTaskId_1024::4           45                       # Occupied blocks per task id, per block age (Count)
board.cache_hierarchy.dptw_caches1.tags.ratioOccsTaskId::1024     0.351562                       # Ratio of occupied blocks and all blocks, per task id (Ratio)
board.cache_hierarchy.dptw_caches1.tags.tagAccesses         1006                       # Number of tag accesses (Count)
board.cache_hierarchy.dptw_caches1.tags.dataAccesses         1006                       # Number of data accesses (Count)
board.cache_hierarchy.dptw_caches1.tags.power_state.pwrStateResidencyTicks::UNDEFINED 16939330873000                       # Cumulative time (in ticks) in various power states (Tick)
board.cache_hierarchy.dptw_caches2.demandHits::processor.cores2.core.mmu.dtb.walker          286                       # number of demand (read+write) hits (Count)
board.cache_hierarchy.dptw_caches2.demandHits::total          286                       # number of demand (read+write) hits (Count)
board.cache_hierarchy.dptw_caches2.overallHits::processor.cores2.core.mmu.dtb.walker          286                       # number of overall hits (Count)
board.cache_hierarchy.dptw_caches2.overallHits::total          286                       # number of overall hits (Count)
board.cache_hierarchy.dptw_caches2.demandMisses::processor.cores2.core.mmu.dtb.walker           11                       # number of demand (read+write) misses (Count)
board.cache_hierarchy.dptw_caches2.demandMisses::total           11                       # number of demand (read+write) misses (Count)
board.cache_hierarchy.dptw_caches2.overallMisses::processor.cores2.core.mmu.dtb.walker           11                       # number of overall misses (Count)
board.cache_hierarchy.dptw_caches2.overallMisses::total           11                       # number of overall misses (Count)
board.cache_hierarchy.dptw_caches2.demandMissLatency::processor.cores2.core.mmu.dtb.walker       161000                       # number of demand (read+write) miss ticks (Tick)
board.cache_hierarchy.dptw_caches2.demandMissLatency::total       161000                       # number of demand (read+write) miss ticks (Tick)
board.cache_hierarchy.dptw_caches2.overallMissLatency::processor.cores2.core.mmu.dtb.walker       161000                       # number of overall miss ticks (Tick)
board.cache_hierarchy.dptw_caches2.overallMissLatency::total       161000                       # number of overall miss ticks (Tick)
board.cache_hierarchy.dptw_caches2.demandAccesses::processor.cores2.core.mmu.dtb.walker          297                       # number of demand (read+write) accesses (Count)
board.cache_hierarchy.dptw_caches2.demandAccesses::total          297                       # number of demand (read+write) accesses (Count)
board.cache_hierarchy.dptw_caches2.overallAccesses::processor.cores2.core.mmu.dtb.walker          297                       # number of overall (read+write) accesses (Count)
board.cache_hierarchy.dptw_caches2.overallAccesses::total          297                       # number of overall (read+write) accesses (Count)
board.cache_hierarchy.dptw_caches2.demandMissRate::processor.cores2.core.mmu.dtb.walker     0.037037                       # miss rate for demand accesses (Ratio)
board.cache_hierarchy.dptw_caches2.demandMissRate::total     0.037037                       # miss rate for demand accesses (Ratio)
board.cache_hierarchy.dptw_caches2.overallMissRate::processor.cores2.core.mmu.dtb.walker     0.037037                       # miss rate for overall accesses (Ratio)
board.cache_hierarchy.dptw_caches2.overallMissRate::total     0.037037                       # miss rate for overall accesses (Ratio)
board.cache_hierarchy.dptw_caches2.demandAvgMissLatency::processor.cores2.core.mmu.dtb.walker 14636.363636                       # average overall miss latency in ticks ((Tick/Count))
board.cache_hierarchy.dptw_caches2.demandAvgMissLatency::total 14636.363636                       # average overall miss latency in ticks ((Tick/Count))
board.cache_hierarchy.dptw_caches2.overallAvgMissLatency::processor.cores2.core.mmu.dtb.walker 14636.363636                       # average overall miss latency ((Tick/Count))
board.cache_hierarchy.dptw_caches2.overallAvgMissLatency::total 14636.363636                       # average overall miss latency ((Tick/Count))
board.cache_hierarchy.dptw_caches2.blockedCycles::no_mshrs            0                       # number of cycles access was blocked (Cycle)
board.cache_hierarchy.dptw_caches2.blockedCycles::no_targets            0                       # number of cycles access was blocked (Cycle)
board.cache_hierarchy.dptw_caches2.blockedCauses::no_mshrs            0                       # number of times access was blocked (Count)
board.cache_hierarchy.dptw_caches2.blockedCauses::no_targets            0                       # number of times access was blocked (Count)
board.cache_hierarchy.dptw_caches2.avgBlocked::no_mshrs          nan                       # average number of cycles each access was blocked ((Cycle/Count))
board.cache_hierarchy.dptw_caches2.avgBlocked::no_targets          nan                       # average number of cycles each access was blocked ((Cycle/Count))
board.cache_hierarchy.dptw_caches2.writebacks::writebacks            4                       # number of writebacks (Count)
board.cache_hierarchy.dptw_caches2.writebacks::total            4                       # number of writebacks (Count)
board.cache_hierarchy.dptw_caches2.demandMshrMisses::processor.cores2.core.mmu.dtb.walker           11                       # number of demand (read+write) MSHR misses (Count)
board.cache_hierarchy.dptw_caches2.demandMshrMisses::total           11                       # number of demand (read+write) MSHR misses (Count)
board.cache_hierarchy.dptw_caches2.overallMshrMisses::processor.cores2.core.mmu.dtb.walker           11                       # number of overall MSHR misses (Count)
board.cache_hierarchy.dptw_caches2.overallMshrMisses::total           11                       # number of overall MSHR misses (Count)
board.cache_hierarchy.dptw_caches2.demandMshrMissLatency::processor.cores2.core.mmu.dtb.walker       150000                       # number of demand (read+write) MSHR miss ticks (Tick)
board.cache_hierarchy.dptw_caches2.demandMshrMissLatency::total       150000                       # number of demand (read+write) MSHR miss ticks (Tick)
board.cache_hierarchy.dptw_caches2.overallMshrMissLatency::processor.cores2.core.mmu.dtb.walker       150000                       # number of overall MSHR miss ticks (Tick)
board.cache_hierarchy.dptw_caches2.overallMshrMissLatency::total       150000                       # number of overall MSHR miss ticks (Tick)
board.cache_hierarchy.dptw_caches2.demandMshrMissRate::processor.cores2.core.mmu.dtb.walker     0.037037                       # mshr miss ratio for demand accesses (Ratio)
board.cache_hierarchy.dptw_caches2.demandMshrMissRate::total     0.037037                       # mshr miss ratio for demand accesses (Ratio)
board.cache_hierarchy.dptw_caches2.overallMshrMissRate::processor.cores2.core.mmu.dtb.walker     0.037037                       # mshr miss ratio for overall accesses (Ratio)
board.cache_hierarchy.dptw_caches2.overallMshrMissRate::total     0.037037                       # mshr miss ratio for overall accesses (Ratio)
board.cache_hierarchy.dptw_caches2.demandAvgMshrMissLatency::processor.cores2.core.mmu.dtb.walker 13636.363636                       # average overall mshr miss latency ((Tick/Count))
board.cache_hierarchy.dptw_caches2.demandAvgMshrMissLatency::total 13636.363636                       # average overall mshr miss latency ((Tick/Count))
board.cache_hierarchy.dptw_caches2.overallAvgMshrMissLatency::processor.cores2.core.mmu.dtb.walker 13636.363636                       # average overall mshr miss latency ((Tick/Count))
board.cache_hierarchy.dptw_caches2.overallAvgMshrMissLatency::total 13636.363636                       # average overall mshr miss latency ((Tick/Count))
board.cache_hierarchy.dptw_caches2.replacements            4                       # number of replacements (Count)
board.cache_hierarchy.dptw_caches2.ReadReq.hits::processor.cores2.core.mmu.dtb.walker          286                       # number of ReadReq hits (Count)
board.cache_hierarchy.dptw_caches2.ReadReq.hits::total          286                       # number of ReadReq hits (Count)
board.cache_hierarchy.dptw_caches2.ReadReq.misses::processor.cores2.core.mmu.dtb.walker           11                       # number of ReadReq misses (Count)
board.cache_hierarchy.dptw_caches2.ReadReq.misses::total           11                       # number of ReadReq misses (Count)
board.cache_hierarchy.dptw_caches2.ReadReq.missLatency::processor.cores2.core.mmu.dtb.walker       161000                       # number of ReadReq miss ticks (Tick)
board.cache_hierarchy.dptw_caches2.ReadReq.missLatency::total       161000                       # number of ReadReq miss ticks (Tick)
board.cache_hierarchy.dptw_caches2.ReadReq.accesses::processor.cores2.core.mmu.dtb.walker          297                       # number of ReadReq accesses(hits+misses) (Count)
board.cache_hierarchy.dptw_caches2.ReadReq.accesses::total          297                       # number of ReadReq accesses(hits+misses) (Count)
board.cache_hierarchy.dptw_caches2.ReadReq.missRate::processor.cores2.core.mmu.dtb.walker     0.037037                       # miss rate for ReadReq accesses (Ratio)
board.cache_hierarchy.dptw_caches2.ReadReq.missRate::total     0.037037                       # miss rate for ReadReq accesses (Ratio)
board.cache_hierarchy.dptw_caches2.ReadReq.avgMissLatency::processor.cores2.core.mmu.dtb.walker 14636.363636                       # average ReadReq miss latency ((Tick/Count))
board.cache_hierarchy.dptw_caches2.ReadReq.avgMissLatency::total 14636.363636                       # average ReadReq miss latency ((Tick/Count))
board.cache_hierarchy.dptw_caches2.ReadReq.mshrMisses::processor.cores2.core.mmu.dtb.walker           11                       # number of ReadReq MSHR misses (Count)
board.cache_hierarchy.dptw_caches2.ReadReq.mshrMisses::total           11                       # number of ReadReq MSHR misses (Count)
board.cache_hierarchy.dptw_caches2.ReadReq.mshrMissLatency::processor.cores2.core.mmu.dtb.walker       150000                       # number of ReadReq MSHR miss ticks (Tick)
board.cache_hierarchy.dptw_caches2.ReadReq.mshrMissLatency::total       150000                       # number of ReadReq MSHR miss ticks (Tick)
board.cache_hierarchy.dptw_caches2.ReadReq.mshrMissRate::processor.cores2.core.mmu.dtb.walker     0.037037                       # mshr miss rate for ReadReq accesses (Ratio)
board.cache_hierarchy.dptw_caches2.ReadReq.mshrMissRate::total     0.037037                       # mshr miss rate for ReadReq accesses (Ratio)
board.cache_hierarchy.dptw_caches2.ReadReq.avgMshrMissLatency::processor.cores2.core.mmu.dtb.walker 13636.363636                       # average ReadReq mshr miss latency ((Tick/Count))
board.cache_hierarchy.dptw_caches2.ReadReq.avgMshrMissLatency::total 13636.363636                       # average ReadReq mshr miss latency ((Tick/Count))
board.cache_hierarchy.dptw_caches2.power_state.pwrStateResidencyTicks::UNDEFINED 16939330873000                       # Cumulative time (in ticks) in various power states (Tick)
board.cache_hierarchy.dptw_caches2.tags.tagsInUse    36.997464                       # Average ticks per tags in use ((Tick/Count))
board.cache_hierarchy.dptw_caches2.tags.totalRefs          284                       # Total number of references to valid blocks. (Count)
board.cache_hierarchy.dptw_caches2.tags.sampledRefs           10                       # Sample count of references to valid blocks. (Count)
board.cache_hierarchy.dptw_caches2.tags.avgRefs    28.400000                       # Average number of references to valid blocks. ((Count/Count))
board.cache_hierarchy.dptw_caches2.tags.warmupTick            0                       # The tick when the warmup percentage was hit. (Tick)
board.cache_hierarchy.dptw_caches2.tags.occupancies::processor.cores2.core.mmu.dtb.walker    36.997464                       # Average occupied blocks per tick, per requestor ((Count/Tick))
board.cache_hierarchy.dptw_caches2.tags.avgOccs::processor.cores2.core.mmu.dtb.walker     0.289043                       # Average percentage of cache occupancy ((Ratio/Tick))
board.cache_hierarchy.dptw_caches2.tags.avgOccs::total     0.289043                       # Average percentage of cache occupancy ((Ratio/Tick))
board.cache_hierarchy.dptw_caches2.tags.occupanciesTaskId::1024           37                       # Occupied blocks per task id (Count)
board.cache_hierarchy.dptw_caches2.tags.ageTaskId_1024::4           37                       # Occupied blocks per task id, per block age (Count)
board.cache_hierarchy.dptw_caches2.tags.ratioOccsTaskId::1024     0.289062                       # Ratio of occupied blocks and all blocks, per task id (Ratio)
board.cache_hierarchy.dptw_caches2.tags.tagAccesses         1199                       # Number of tag accesses (Count)
board.cache_hierarchy.dptw_caches2.tags.dataAccesses         1199                       # Number of data accesses (Count)
board.cache_hierarchy.dptw_caches2.tags.power_state.pwrStateResidencyTicks::UNDEFINED 16939330873000                       # Cumulative time (in ticks) in various power states (Tick)
board.cache_hierarchy.iocache.blockedCycles::no_mshrs            0                       # number of cycles access was blocked (Cycle)
board.cache_hierarchy.iocache.blockedCycles::no_targets            0                       # number of cycles access was blocked (Cycle)
board.cache_hierarchy.iocache.blockedCauses::no_mshrs            0                       # number of times access was blocked (Count)
board.cache_hierarchy.iocache.blockedCauses::no_targets            0                       # number of times access was blocked (Count)
board.cache_hierarchy.iocache.avgBlocked::no_mshrs          nan                       # average number of cycles each access was blocked ((Cycle/Count))
board.cache_hierarchy.iocache.avgBlocked::no_targets          nan                       # average number of cycles each access was blocked ((Cycle/Count))
board.cache_hierarchy.iocache.replacements            0                       # number of replacements (Count)
board.cache_hierarchy.iocache.power_state.pwrStateResidencyTicks::UNDEFINED 16939330873000                       # Cumulative time (in ticks) in various power states (Tick)
board.cache_hierarchy.iocache.tags.tagsInUse            0                       # Average ticks per tags in use ((Tick/Count))
board.cache_hierarchy.iocache.tags.totalRefs            0                       # Total number of references to valid blocks. (Count)
board.cache_hierarchy.iocache.tags.sampledRefs            0                       # Sample count of references to valid blocks. (Count)
board.cache_hierarchy.iocache.tags.avgRefs          nan                       # Average number of references to valid blocks. ((Count/Count))
board.cache_hierarchy.iocache.tags.warmupTick            0                       # The tick when the warmup percentage was hit. (Tick)
board.cache_hierarchy.iocache.tags.tagAccesses            0                       # Number of tag accesses (Count)
board.cache_hierarchy.iocache.tags.dataAccesses            0                       # Number of data accesses (Count)
board.cache_hierarchy.iocache.tags.power_state.pwrStateResidencyTicks::UNDEFINED 16939330873000                       # Cumulative time (in ticks) in various power states (Tick)
board.cache_hierarchy.iptw_caches0.demandHits::processor.cores0.core.mmu.itb.walker           29                       # number of demand (read+write) hits (Count)
board.cache_hierarchy.iptw_caches0.demandHits::total           29                       # number of demand (read+write) hits (Count)
board.cache_hierarchy.iptw_caches0.overallHits::processor.cores0.core.mmu.itb.walker           29                       # number of overall hits (Count)
board.cache_hierarchy.iptw_caches0.overallHits::total           29                       # number of overall hits (Count)
board.cache_hierarchy.iptw_caches0.demandMisses::processor.cores0.core.mmu.itb.walker           10                       # number of demand (read+write) misses (Count)
board.cache_hierarchy.iptw_caches0.demandMisses::total           10                       # number of demand (read+write) misses (Count)
board.cache_hierarchy.iptw_caches0.overallMisses::processor.cores0.core.mmu.itb.walker           10                       # number of overall misses (Count)
board.cache_hierarchy.iptw_caches0.overallMisses::total           10                       # number of overall misses (Count)
board.cache_hierarchy.iptw_caches0.demandMissLatency::processor.cores0.core.mmu.itb.walker       602000                       # number of demand (read+write) miss ticks (Tick)
board.cache_hierarchy.iptw_caches0.demandMissLatency::total       602000                       # number of demand (read+write) miss ticks (Tick)
board.cache_hierarchy.iptw_caches0.overallMissLatency::processor.cores0.core.mmu.itb.walker       602000                       # number of overall miss ticks (Tick)
board.cache_hierarchy.iptw_caches0.overallMissLatency::total       602000                       # number of overall miss ticks (Tick)
board.cache_hierarchy.iptw_caches0.demandAccesses::processor.cores0.core.mmu.itb.walker           39                       # number of demand (read+write) accesses (Count)
board.cache_hierarchy.iptw_caches0.demandAccesses::total           39                       # number of demand (read+write) accesses (Count)
board.cache_hierarchy.iptw_caches0.overallAccesses::processor.cores0.core.mmu.itb.walker           39                       # number of overall (read+write) accesses (Count)
board.cache_hierarchy.iptw_caches0.overallAccesses::total           39                       # number of overall (read+write) accesses (Count)
board.cache_hierarchy.iptw_caches0.demandMissRate::processor.cores0.core.mmu.itb.walker     0.256410                       # miss rate for demand accesses (Ratio)
board.cache_hierarchy.iptw_caches0.demandMissRate::total     0.256410                       # miss rate for demand accesses (Ratio)
board.cache_hierarchy.iptw_caches0.overallMissRate::processor.cores0.core.mmu.itb.walker     0.256410                       # miss rate for overall accesses (Ratio)
board.cache_hierarchy.iptw_caches0.overallMissRate::total     0.256410                       # miss rate for overall accesses (Ratio)
board.cache_hierarchy.iptw_caches0.demandAvgMissLatency::processor.cores0.core.mmu.itb.walker        60200                       # average overall miss latency in ticks ((Tick/Count))
board.cache_hierarchy.iptw_caches0.demandAvgMissLatency::total        60200                       # average overall miss latency in ticks ((Tick/Count))
board.cache_hierarchy.iptw_caches0.overallAvgMissLatency::processor.cores0.core.mmu.itb.walker        60200                       # average overall miss latency ((Tick/Count))
board.cache_hierarchy.iptw_caches0.overallAvgMissLatency::total        60200                       # average overall miss latency ((Tick/Count))
board.cache_hierarchy.iptw_caches0.blockedCycles::no_mshrs            0                       # number of cycles access was blocked (Cycle)
board.cache_hierarchy.iptw_caches0.blockedCycles::no_targets            0                       # number of cycles access was blocked (Cycle)
board.cache_hierarchy.iptw_caches0.blockedCauses::no_mshrs            0                       # number of times access was blocked (Count)
board.cache_hierarchy.iptw_caches0.blockedCauses::no_targets            0                       # number of times access was blocked (Count)
board.cache_hierarchy.iptw_caches0.avgBlocked::no_mshrs          nan                       # average number of cycles each access was blocked ((Cycle/Count))
board.cache_hierarchy.iptw_caches0.avgBlocked::no_targets          nan                       # average number of cycles each access was blocked ((Cycle/Count))
board.cache_hierarchy.iptw_caches0.demandMshrMisses::processor.cores0.core.mmu.itb.walker           10                       # number of demand (read+write) MSHR misses (Count)
board.cache_hierarchy.iptw_caches0.demandMshrMisses::total           10                       # number of demand (read+write) MSHR misses (Count)
board.cache_hierarchy.iptw_caches0.overallMshrMisses::processor.cores0.core.mmu.itb.walker           10                       # number of overall MSHR misses (Count)
board.cache_hierarchy.iptw_caches0.overallMshrMisses::total           10                       # number of overall MSHR misses (Count)
board.cache_hierarchy.iptw_caches0.demandMshrMissLatency::processor.cores0.core.mmu.itb.walker       592000                       # number of demand (read+write) MSHR miss ticks (Tick)
board.cache_hierarchy.iptw_caches0.demandMshrMissLatency::total       592000                       # number of demand (read+write) MSHR miss ticks (Tick)
board.cache_hierarchy.iptw_caches0.overallMshrMissLatency::processor.cores0.core.mmu.itb.walker       592000                       # number of overall MSHR miss ticks (Tick)
board.cache_hierarchy.iptw_caches0.overallMshrMissLatency::total       592000                       # number of overall MSHR miss ticks (Tick)
board.cache_hierarchy.iptw_caches0.demandMshrMissRate::processor.cores0.core.mmu.itb.walker     0.256410                       # mshr miss ratio for demand accesses (Ratio)
board.cache_hierarchy.iptw_caches0.demandMshrMissRate::total     0.256410                       # mshr miss ratio for demand accesses (Ratio)
board.cache_hierarchy.iptw_caches0.overallMshrMissRate::processor.cores0.core.mmu.itb.walker     0.256410                       # mshr miss ratio for overall accesses (Ratio)
board.cache_hierarchy.iptw_caches0.overallMshrMissRate::total     0.256410                       # mshr miss ratio for overall accesses (Ratio)
board.cache_hierarchy.iptw_caches0.demandAvgMshrMissLatency::processor.cores0.core.mmu.itb.walker        59200                       # average overall mshr miss latency ((Tick/Count))
board.cache_hierarchy.iptw_caches0.demandAvgMshrMissLatency::total        59200                       # average overall mshr miss latency ((Tick/Count))
board.cache_hierarchy.iptw_caches0.overallAvgMshrMissLatency::processor.cores0.core.mmu.itb.walker        59200                       # average overall mshr miss latency ((Tick/Count))
board.cache_hierarchy.iptw_caches0.overallAvgMshrMissLatency::total        59200                       # average overall mshr miss latency ((Tick/Count))
board.cache_hierarchy.iptw_caches0.replacements            0                       # number of replacements (Count)
board.cache_hierarchy.iptw_caches0.ReadReq.hits::processor.cores0.core.mmu.itb.walker           29                       # number of ReadReq hits (Count)
board.cache_hierarchy.iptw_caches0.ReadReq.hits::total           29                       # number of ReadReq hits (Count)
board.cache_hierarchy.iptw_caches0.ReadReq.misses::processor.cores0.core.mmu.itb.walker           10                       # number of ReadReq misses (Count)
board.cache_hierarchy.iptw_caches0.ReadReq.misses::total           10                       # number of ReadReq misses (Count)
board.cache_hierarchy.iptw_caches0.ReadReq.missLatency::processor.cores0.core.mmu.itb.walker       602000                       # number of ReadReq miss ticks (Tick)
board.cache_hierarchy.iptw_caches0.ReadReq.missLatency::total       602000                       # number of ReadReq miss ticks (Tick)
board.cache_hierarchy.iptw_caches0.ReadReq.accesses::processor.cores0.core.mmu.itb.walker           39                       # number of ReadReq accesses(hits+misses) (Count)
board.cache_hierarchy.iptw_caches0.ReadReq.accesses::total           39                       # number of ReadReq accesses(hits+misses) (Count)
board.cache_hierarchy.iptw_caches0.ReadReq.missRate::processor.cores0.core.mmu.itb.walker     0.256410                       # miss rate for ReadReq accesses (Ratio)
board.cache_hierarchy.iptw_caches0.ReadReq.missRate::total     0.256410                       # miss rate for ReadReq accesses (Ratio)
board.cache_hierarchy.iptw_caches0.ReadReq.avgMissLatency::processor.cores0.core.mmu.itb.walker        60200                       # average ReadReq miss latency ((Tick/Count))
board.cache_hierarchy.iptw_caches0.ReadReq.avgMissLatency::total        60200                       # average ReadReq miss latency ((Tick/Count))
board.cache_hierarchy.iptw_caches0.ReadReq.mshrMisses::processor.cores0.core.mmu.itb.walker           10                       # number of ReadReq MSHR misses (Count)
board.cache_hierarchy.iptw_caches0.ReadReq.mshrMisses::total           10                       # number of ReadReq MSHR misses (Count)
board.cache_hierarchy.iptw_caches0.ReadReq.mshrMissLatency::processor.cores0.core.mmu.itb.walker       592000                       # number of ReadReq MSHR miss ticks (Tick)
board.cache_hierarchy.iptw_caches0.ReadReq.mshrMissLatency::total       592000                       # number of ReadReq MSHR miss ticks (Tick)
board.cache_hierarchy.iptw_caches0.ReadReq.mshrMissRate::processor.cores0.core.mmu.itb.walker     0.256410                       # mshr miss rate for ReadReq accesses (Ratio)
board.cache_hierarchy.iptw_caches0.ReadReq.mshrMissRate::total     0.256410                       # mshr miss rate for ReadReq accesses (Ratio)
board.cache_hierarchy.iptw_caches0.ReadReq.avgMshrMissLatency::processor.cores0.core.mmu.itb.walker        59200                       # average ReadReq mshr miss latency ((Tick/Count))
board.cache_hierarchy.iptw_caches0.ReadReq.avgMshrMissLatency::total        59200                       # average ReadReq mshr miss latency ((Tick/Count))
board.cache_hierarchy.iptw_caches0.power_state.pwrStateResidencyTicks::UNDEFINED 16939330873000                       # Cumulative time (in ticks) in various power states (Tick)
board.cache_hierarchy.iptw_caches0.tags.tagsInUse     9.794933                       # Average ticks per tags in use ((Tick/Count))
board.cache_hierarchy.iptw_caches0.tags.totalRefs            0                       # Total number of references to valid blocks. (Count)
board.cache_hierarchy.iptw_caches0.tags.sampledRefs            0                       # Sample count of references to valid blocks. (Count)
board.cache_hierarchy.iptw_caches0.tags.avgRefs          nan                       # Average number of references to valid blocks. ((Count/Count))
board.cache_hierarchy.iptw_caches0.tags.warmupTick 16782856899000                       # The tick when the warmup percentage was hit. (Tick)
board.cache_hierarchy.iptw_caches0.tags.occupancies::processor.cores0.core.mmu.itb.walker     9.794933                       # Average occupied blocks per tick, per requestor ((Count/Tick))
board.cache_hierarchy.iptw_caches0.tags.avgOccs::processor.cores0.core.mmu.itb.walker     0.076523                       # Average percentage of cache occupancy ((Ratio/Tick))
board.cache_hierarchy.iptw_caches0.tags.avgOccs::total     0.076523                       # Average percentage of cache occupancy ((Ratio/Tick))
board.cache_hierarchy.iptw_caches0.tags.occupanciesTaskId::1024           10                       # Occupied blocks per task id (Count)
board.cache_hierarchy.iptw_caches0.tags.ageTaskId_1024::4           10                       # Occupied blocks per task id, per block age (Count)
board.cache_hierarchy.iptw_caches0.tags.ratioOccsTaskId::1024     0.078125                       # Ratio of occupied blocks and all blocks, per task id (Ratio)
board.cache_hierarchy.iptw_caches0.tags.tagAccesses          166                       # Number of tag accesses (Count)
board.cache_hierarchy.iptw_caches0.tags.dataAccesses          166                       # Number of data accesses (Count)
board.cache_hierarchy.iptw_caches0.tags.power_state.pwrStateResidencyTicks::UNDEFINED 16939330873000                       # Cumulative time (in ticks) in various power states (Tick)
board.cache_hierarchy.iptw_caches1.demandHits::processor.cores1.core.mmu.itb.walker           30                       # number of demand (read+write) hits (Count)
board.cache_hierarchy.iptw_caches1.demandHits::total           30                       # number of demand (read+write) hits (Count)
board.cache_hierarchy.iptw_caches1.overallHits::processor.cores1.core.mmu.itb.walker           30                       # number of overall hits (Count)
board.cache_hierarchy.iptw_caches1.overallHits::total           30                       # number of overall hits (Count)
board.cache_hierarchy.iptw_caches1.demandMisses::processor.cores1.core.mmu.itb.walker            9                       # number of demand (read+write) misses (Count)
board.cache_hierarchy.iptw_caches1.demandMisses::total            9                       # number of demand (read+write) misses (Count)
board.cache_hierarchy.iptw_caches1.overallMisses::processor.cores1.core.mmu.itb.walker            9                       # number of overall misses (Count)
board.cache_hierarchy.iptw_caches1.overallMisses::total            9                       # number of overall misses (Count)
board.cache_hierarchy.iptw_caches1.demandMissLatency::processor.cores1.core.mmu.itb.walker       542000                       # number of demand (read+write) miss ticks (Tick)
board.cache_hierarchy.iptw_caches1.demandMissLatency::total       542000                       # number of demand (read+write) miss ticks (Tick)
board.cache_hierarchy.iptw_caches1.overallMissLatency::processor.cores1.core.mmu.itb.walker       542000                       # number of overall miss ticks (Tick)
board.cache_hierarchy.iptw_caches1.overallMissLatency::total       542000                       # number of overall miss ticks (Tick)
board.cache_hierarchy.iptw_caches1.demandAccesses::processor.cores1.core.mmu.itb.walker           39                       # number of demand (read+write) accesses (Count)
board.cache_hierarchy.iptw_caches1.demandAccesses::total           39                       # number of demand (read+write) accesses (Count)
board.cache_hierarchy.iptw_caches1.overallAccesses::processor.cores1.core.mmu.itb.walker           39                       # number of overall (read+write) accesses (Count)
board.cache_hierarchy.iptw_caches1.overallAccesses::total           39                       # number of overall (read+write) accesses (Count)
board.cache_hierarchy.iptw_caches1.demandMissRate::processor.cores1.core.mmu.itb.walker     0.230769                       # miss rate for demand accesses (Ratio)
board.cache_hierarchy.iptw_caches1.demandMissRate::total     0.230769                       # miss rate for demand accesses (Ratio)
board.cache_hierarchy.iptw_caches1.overallMissRate::processor.cores1.core.mmu.itb.walker     0.230769                       # miss rate for overall accesses (Ratio)
board.cache_hierarchy.iptw_caches1.overallMissRate::total     0.230769                       # miss rate for overall accesses (Ratio)
board.cache_hierarchy.iptw_caches1.demandAvgMissLatency::processor.cores1.core.mmu.itb.walker 60222.222222                       # average overall miss latency in ticks ((Tick/Count))
board.cache_hierarchy.iptw_caches1.demandAvgMissLatency::total 60222.222222                       # average overall miss latency in ticks ((Tick/Count))
board.cache_hierarchy.iptw_caches1.overallAvgMissLatency::processor.cores1.core.mmu.itb.walker 60222.222222                       # average overall miss latency ((Tick/Count))
board.cache_hierarchy.iptw_caches1.overallAvgMissLatency::total 60222.222222                       # average overall miss latency ((Tick/Count))
board.cache_hierarchy.iptw_caches1.blockedCycles::no_mshrs            0                       # number of cycles access was blocked (Cycle)
board.cache_hierarchy.iptw_caches1.blockedCycles::no_targets            0                       # number of cycles access was blocked (Cycle)
board.cache_hierarchy.iptw_caches1.blockedCauses::no_mshrs            0                       # number of times access was blocked (Count)
board.cache_hierarchy.iptw_caches1.blockedCauses::no_targets            0                       # number of times access was blocked (Count)
board.cache_hierarchy.iptw_caches1.avgBlocked::no_mshrs          nan                       # average number of cycles each access was blocked ((Cycle/Count))
board.cache_hierarchy.iptw_caches1.avgBlocked::no_targets          nan                       # average number of cycles each access was blocked ((Cycle/Count))
board.cache_hierarchy.iptw_caches1.writebacks::writebacks            2                       # number of writebacks (Count)
board.cache_hierarchy.iptw_caches1.writebacks::total            2                       # number of writebacks (Count)
board.cache_hierarchy.iptw_caches1.demandMshrMisses::processor.cores1.core.mmu.itb.walker            9                       # number of demand (read+write) MSHR misses (Count)
board.cache_hierarchy.iptw_caches1.demandMshrMisses::total            9                       # number of demand (read+write) MSHR misses (Count)
board.cache_hierarchy.iptw_caches1.overallMshrMisses::processor.cores1.core.mmu.itb.walker            9                       # number of overall MSHR misses (Count)
board.cache_hierarchy.iptw_caches1.overallMshrMisses::total            9                       # number of overall MSHR misses (Count)
board.cache_hierarchy.iptw_caches1.demandMshrMissLatency::processor.cores1.core.mmu.itb.walker       533000                       # number of demand (read+write) MSHR miss ticks (Tick)
board.cache_hierarchy.iptw_caches1.demandMshrMissLatency::total       533000                       # number of demand (read+write) MSHR miss ticks (Tick)
board.cache_hierarchy.iptw_caches1.overallMshrMissLatency::processor.cores1.core.mmu.itb.walker       533000                       # number of overall MSHR miss ticks (Tick)
board.cache_hierarchy.iptw_caches1.overallMshrMissLatency::total       533000                       # number of overall MSHR miss ticks (Tick)
board.cache_hierarchy.iptw_caches1.demandMshrMissRate::processor.cores1.core.mmu.itb.walker     0.230769                       # mshr miss ratio for demand accesses (Ratio)
board.cache_hierarchy.iptw_caches1.demandMshrMissRate::total     0.230769                       # mshr miss ratio for demand accesses (Ratio)
board.cache_hierarchy.iptw_caches1.overallMshrMissRate::processor.cores1.core.mmu.itb.walker     0.230769                       # mshr miss ratio for overall accesses (Ratio)
board.cache_hierarchy.iptw_caches1.overallMshrMissRate::total     0.230769                       # mshr miss ratio for overall accesses (Ratio)
board.cache_hierarchy.iptw_caches1.demandAvgMshrMissLatency::processor.cores1.core.mmu.itb.walker 59222.222222                       # average overall mshr miss latency ((Tick/Count))
board.cache_hierarchy.iptw_caches1.demandAvgMshrMissLatency::total 59222.222222                       # average overall mshr miss latency ((Tick/Count))
board.cache_hierarchy.iptw_caches1.overallAvgMshrMissLatency::processor.cores1.core.mmu.itb.walker 59222.222222                       # average overall mshr miss latency ((Tick/Count))
board.cache_hierarchy.iptw_caches1.overallAvgMshrMissLatency::total 59222.222222                       # average overall mshr miss latency ((Tick/Count))
board.cache_hierarchy.iptw_caches1.replacements            2                       # number of replacements (Count)
board.cache_hierarchy.iptw_caches1.ReadReq.hits::processor.cores1.core.mmu.itb.walker           30                       # number of ReadReq hits (Count)
board.cache_hierarchy.iptw_caches1.ReadReq.hits::total           30                       # number of ReadReq hits (Count)
board.cache_hierarchy.iptw_caches1.ReadReq.misses::processor.cores1.core.mmu.itb.walker            9                       # number of ReadReq misses (Count)
board.cache_hierarchy.iptw_caches1.ReadReq.misses::total            9                       # number of ReadReq misses (Count)
board.cache_hierarchy.iptw_caches1.ReadReq.missLatency::processor.cores1.core.mmu.itb.walker       542000                       # number of ReadReq miss ticks (Tick)
board.cache_hierarchy.iptw_caches1.ReadReq.missLatency::total       542000                       # number of ReadReq miss ticks (Tick)
board.cache_hierarchy.iptw_caches1.ReadReq.accesses::processor.cores1.core.mmu.itb.walker           39                       # number of ReadReq accesses(hits+misses) (Count)
board.cache_hierarchy.iptw_caches1.ReadReq.accesses::total           39                       # number of ReadReq accesses(hits+misses) (Count)
board.cache_hierarchy.iptw_caches1.ReadReq.missRate::processor.cores1.core.mmu.itb.walker     0.230769                       # miss rate for ReadReq accesses (Ratio)
board.cache_hierarchy.iptw_caches1.ReadReq.missRate::total     0.230769                       # miss rate for ReadReq accesses (Ratio)
board.cache_hierarchy.iptw_caches1.ReadReq.avgMissLatency::processor.cores1.core.mmu.itb.walker 60222.222222                       # average ReadReq miss latency ((Tick/Count))
board.cache_hierarchy.iptw_caches1.ReadReq.avgMissLatency::total 60222.222222                       # average ReadReq miss latency ((Tick/Count))
board.cache_hierarchy.iptw_caches1.ReadReq.mshrMisses::processor.cores1.core.mmu.itb.walker            9                       # number of ReadReq MSHR misses (Count)
board.cache_hierarchy.iptw_caches1.ReadReq.mshrMisses::total            9                       # number of ReadReq MSHR misses (Count)
board.cache_hierarchy.iptw_caches1.ReadReq.mshrMissLatency::processor.cores1.core.mmu.itb.walker       533000                       # number of ReadReq MSHR miss ticks (Tick)
board.cache_hierarchy.iptw_caches1.ReadReq.mshrMissLatency::total       533000                       # number of ReadReq MSHR miss ticks (Tick)
board.cache_hierarchy.iptw_caches1.ReadReq.mshrMissRate::processor.cores1.core.mmu.itb.walker     0.230769                       # mshr miss rate for ReadReq accesses (Ratio)
board.cache_hierarchy.iptw_caches1.ReadReq.mshrMissRate::total     0.230769                       # mshr miss rate for ReadReq accesses (Ratio)
board.cache_hierarchy.iptw_caches1.ReadReq.avgMshrMissLatency::processor.cores1.core.mmu.itb.walker 59222.222222                       # average ReadReq mshr miss latency ((Tick/Count))
board.cache_hierarchy.iptw_caches1.ReadReq.avgMshrMissLatency::total 59222.222222                       # average ReadReq mshr miss latency ((Tick/Count))
board.cache_hierarchy.iptw_caches1.power_state.pwrStateResidencyTicks::UNDEFINED 16939330873000                       # Cumulative time (in ticks) in various power states (Tick)
board.cache_hierarchy.iptw_caches1.tags.tagsInUse    28.980339                       # Average ticks per tags in use ((Tick/Count))
board.cache_hierarchy.iptw_caches1.tags.totalRefs           27                       # Total number of references to valid blocks. (Count)
board.cache_hierarchy.iptw_caches1.tags.sampledRefs            2                       # Sample count of references to valid blocks. (Count)
board.cache_hierarchy.iptw_caches1.tags.avgRefs    13.500000                       # Average number of references to valid blocks. ((Count/Count))
board.cache_hierarchy.iptw_caches1.tags.warmupTick            0                       # The tick when the warmup percentage was hit. (Tick)
board.cache_hierarchy.iptw_caches1.tags.occupancies::processor.cores1.core.mmu.itb.walker    28.980339                       # Average occupied blocks per tick, per requestor ((Count/Tick))
board.cache_hierarchy.iptw_caches1.tags.avgOccs::processor.cores1.core.mmu.itb.walker     0.226409                       # Average percentage of cache occupancy ((Ratio/Tick))
board.cache_hierarchy.iptw_caches1.tags.avgOccs::total     0.226409                       # Average percentage of cache occupancy ((Ratio/Tick))
board.cache_hierarchy.iptw_caches1.tags.occupanciesTaskId::1024           29                       # Occupied blocks per task id (Count)
board.cache_hierarchy.iptw_caches1.tags.ageTaskId_1024::4           29                       # Occupied blocks per task id, per block age (Count)
board.cache_hierarchy.iptw_caches1.tags.ratioOccsTaskId::1024     0.226562                       # Ratio of occupied blocks and all blocks, per task id (Ratio)
board.cache_hierarchy.iptw_caches1.tags.tagAccesses          165                       # Number of tag accesses (Count)
board.cache_hierarchy.iptw_caches1.tags.dataAccesses          165                       # Number of data accesses (Count)
board.cache_hierarchy.iptw_caches1.tags.power_state.pwrStateResidencyTicks::UNDEFINED 16939330873000                       # Cumulative time (in ticks) in various power states (Tick)
board.cache_hierarchy.iptw_caches2.demandHits::processor.cores2.core.mmu.itb.walker           15                       # number of demand (read+write) hits (Count)
board.cache_hierarchy.iptw_caches2.demandHits::total           15                       # number of demand (read+write) hits (Count)
board.cache_hierarchy.iptw_caches2.overallHits::processor.cores2.core.mmu.itb.walker           15                       # number of overall hits (Count)
board.cache_hierarchy.iptw_caches2.overallHits::total           15                       # number of overall hits (Count)
board.cache_hierarchy.iptw_caches2.demandMisses::processor.cores2.core.mmu.itb.walker            3                       # number of demand (read+write) misses (Count)
board.cache_hierarchy.iptw_caches2.demandMisses::total            3                       # number of demand (read+write) misses (Count)
board.cache_hierarchy.iptw_caches2.overallMisses::processor.cores2.core.mmu.itb.walker            3                       # number of overall misses (Count)
board.cache_hierarchy.iptw_caches2.overallMisses::total            3                       # number of overall misses (Count)
board.cache_hierarchy.iptw_caches2.demandMissLatency::processor.cores2.core.mmu.itb.walker        27000                       # number of demand (read+write) miss ticks (Tick)
board.cache_hierarchy.iptw_caches2.demandMissLatency::total        27000                       # number of demand (read+write) miss ticks (Tick)
board.cache_hierarchy.iptw_caches2.overallMissLatency::processor.cores2.core.mmu.itb.walker        27000                       # number of overall miss ticks (Tick)
board.cache_hierarchy.iptw_caches2.overallMissLatency::total        27000                       # number of overall miss ticks (Tick)
board.cache_hierarchy.iptw_caches2.demandAccesses::processor.cores2.core.mmu.itb.walker           18                       # number of demand (read+write) accesses (Count)
board.cache_hierarchy.iptw_caches2.demandAccesses::total           18                       # number of demand (read+write) accesses (Count)
board.cache_hierarchy.iptw_caches2.overallAccesses::processor.cores2.core.mmu.itb.walker           18                       # number of overall (read+write) accesses (Count)
board.cache_hierarchy.iptw_caches2.overallAccesses::total           18                       # number of overall (read+write) accesses (Count)
board.cache_hierarchy.iptw_caches2.demandMissRate::processor.cores2.core.mmu.itb.walker     0.166667                       # miss rate for demand accesses (Ratio)
board.cache_hierarchy.iptw_caches2.demandMissRate::total     0.166667                       # miss rate for demand accesses (Ratio)
board.cache_hierarchy.iptw_caches2.overallMissRate::processor.cores2.core.mmu.itb.walker     0.166667                       # miss rate for overall accesses (Ratio)
board.cache_hierarchy.iptw_caches2.overallMissRate::total     0.166667                       # miss rate for overall accesses (Ratio)
board.cache_hierarchy.iptw_caches2.demandAvgMissLatency::processor.cores2.core.mmu.itb.walker         9000                       # average overall miss latency in ticks ((Tick/Count))
board.cache_hierarchy.iptw_caches2.demandAvgMissLatency::total         9000                       # average overall miss latency in ticks ((Tick/Count))
board.cache_hierarchy.iptw_caches2.overallAvgMissLatency::processor.cores2.core.mmu.itb.walker         9000                       # average overall miss latency ((Tick/Count))
board.cache_hierarchy.iptw_caches2.overallAvgMissLatency::total         9000                       # average overall miss latency ((Tick/Count))
board.cache_hierarchy.iptw_caches2.blockedCycles::no_mshrs            0                       # number of cycles access was blocked (Cycle)
board.cache_hierarchy.iptw_caches2.blockedCycles::no_targets            0                       # number of cycles access was blocked (Cycle)
board.cache_hierarchy.iptw_caches2.blockedCauses::no_mshrs            0                       # number of times access was blocked (Count)
board.cache_hierarchy.iptw_caches2.blockedCauses::no_targets            0                       # number of times access was blocked (Count)
board.cache_hierarchy.iptw_caches2.avgBlocked::no_mshrs          nan                       # average number of cycles each access was blocked ((Cycle/Count))
board.cache_hierarchy.iptw_caches2.avgBlocked::no_targets          nan                       # average number of cycles each access was blocked ((Cycle/Count))
board.cache_hierarchy.iptw_caches2.demandMshrMisses::processor.cores2.core.mmu.itb.walker            3                       # number of demand (read+write) MSHR misses (Count)
board.cache_hierarchy.iptw_caches2.demandMshrMisses::total            3                       # number of demand (read+write) MSHR misses (Count)
board.cache_hierarchy.iptw_caches2.overallMshrMisses::processor.cores2.core.mmu.itb.walker            3                       # number of overall MSHR misses (Count)
board.cache_hierarchy.iptw_caches2.overallMshrMisses::total            3                       # number of overall MSHR misses (Count)
board.cache_hierarchy.iptw_caches2.demandMshrMissLatency::processor.cores2.core.mmu.itb.walker        24000                       # number of demand (read+write) MSHR miss ticks (Tick)
board.cache_hierarchy.iptw_caches2.demandMshrMissLatency::total        24000                       # number of demand (read+write) MSHR miss ticks (Tick)
board.cache_hierarchy.iptw_caches2.overallMshrMissLatency::processor.cores2.core.mmu.itb.walker        24000                       # number of overall MSHR miss ticks (Tick)
board.cache_hierarchy.iptw_caches2.overallMshrMissLatency::total        24000                       # number of overall MSHR miss ticks (Tick)
board.cache_hierarchy.iptw_caches2.demandMshrMissRate::processor.cores2.core.mmu.itb.walker     0.166667                       # mshr miss ratio for demand accesses (Ratio)
board.cache_hierarchy.iptw_caches2.demandMshrMissRate::total     0.166667                       # mshr miss ratio for demand accesses (Ratio)
board.cache_hierarchy.iptw_caches2.overallMshrMissRate::processor.cores2.core.mmu.itb.walker     0.166667                       # mshr miss ratio for overall accesses (Ratio)
board.cache_hierarchy.iptw_caches2.overallMshrMissRate::total     0.166667                       # mshr miss ratio for overall accesses (Ratio)
board.cache_hierarchy.iptw_caches2.demandAvgMshrMissLatency::processor.cores2.core.mmu.itb.walker         8000                       # average overall mshr miss latency ((Tick/Count))
board.cache_hierarchy.iptw_caches2.demandAvgMshrMissLatency::total         8000                       # average overall mshr miss latency ((Tick/Count))
board.cache_hierarchy.iptw_caches2.overallAvgMshrMissLatency::processor.cores2.core.mmu.itb.walker         8000                       # average overall mshr miss latency ((Tick/Count))
board.cache_hierarchy.iptw_caches2.overallAvgMshrMissLatency::total         8000                       # average overall mshr miss latency ((Tick/Count))
board.cache_hierarchy.iptw_caches2.replacements            0                       # number of replacements (Count)
board.cache_hierarchy.iptw_caches2.ReadReq.hits::processor.cores2.core.mmu.itb.walker           15                       # number of ReadReq hits (Count)
board.cache_hierarchy.iptw_caches2.ReadReq.hits::total           15                       # number of ReadReq hits (Count)
board.cache_hierarchy.iptw_caches2.ReadReq.misses::processor.cores2.core.mmu.itb.walker            3                       # number of ReadReq misses (Count)
board.cache_hierarchy.iptw_caches2.ReadReq.misses::total            3                       # number of ReadReq misses (Count)
board.cache_hierarchy.iptw_caches2.ReadReq.missLatency::processor.cores2.core.mmu.itb.walker        27000                       # number of ReadReq miss ticks (Tick)
board.cache_hierarchy.iptw_caches2.ReadReq.missLatency::total        27000                       # number of ReadReq miss ticks (Tick)
board.cache_hierarchy.iptw_caches2.ReadReq.accesses::processor.cores2.core.mmu.itb.walker           18                       # number of ReadReq accesses(hits+misses) (Count)
board.cache_hierarchy.iptw_caches2.ReadReq.accesses::total           18                       # number of ReadReq accesses(hits+misses) (Count)
board.cache_hierarchy.iptw_caches2.ReadReq.missRate::processor.cores2.core.mmu.itb.walker     0.166667                       # miss rate for ReadReq accesses (Ratio)
board.cache_hierarchy.iptw_caches2.ReadReq.missRate::total     0.166667                       # miss rate for ReadReq accesses (Ratio)
board.cache_hierarchy.iptw_caches2.ReadReq.avgMissLatency::processor.cores2.core.mmu.itb.walker         9000                       # average ReadReq miss latency ((Tick/Count))
board.cache_hierarchy.iptw_caches2.ReadReq.avgMissLatency::total         9000                       # average ReadReq miss latency ((Tick/Count))
board.cache_hierarchy.iptw_caches2.ReadReq.mshrMisses::processor.cores2.core.mmu.itb.walker            3                       # number of ReadReq MSHR misses (Count)
board.cache_hierarchy.iptw_caches2.ReadReq.mshrMisses::total            3                       # number of ReadReq MSHR misses (Count)
board.cache_hierarchy.iptw_caches2.ReadReq.mshrMissLatency::processor.cores2.core.mmu.itb.walker        24000                       # number of ReadReq MSHR miss ticks (Tick)
board.cache_hierarchy.iptw_caches2.ReadReq.mshrMissLatency::total        24000                       # number of ReadReq MSHR miss ticks (Tick)
board.cache_hierarchy.iptw_caches2.ReadReq.mshrMissRate::processor.cores2.core.mmu.itb.walker     0.166667                       # mshr miss rate for ReadReq accesses (Ratio)
board.cache_hierarchy.iptw_caches2.ReadReq.mshrMissRate::total     0.166667                       # mshr miss rate for ReadReq accesses (Ratio)
board.cache_hierarchy.iptw_caches2.ReadReq.avgMshrMissLatency::processor.cores2.core.mmu.itb.walker         8000                       # average ReadReq mshr miss latency ((Tick/Count))
board.cache_hierarchy.iptw_caches2.ReadReq.avgMshrMissLatency::total         8000                       # average ReadReq mshr miss latency ((Tick/Count))
board.cache_hierarchy.iptw_caches2.power_state.pwrStateResidencyTicks::UNDEFINED 16939330873000                       # Cumulative time (in ticks) in various power states (Tick)
board.cache_hierarchy.iptw_caches2.tags.tagsInUse    17.002466                       # Average ticks per tags in use ((Tick/Count))
board.cache_hierarchy.iptw_caches2.tags.totalRefs            2                       # Total number of references to valid blocks. (Count)
board.cache_hierarchy.iptw_caches2.tags.sampledRefs            2                       # Sample count of references to valid blocks. (Count)
board.cache_hierarchy.iptw_caches2.tags.avgRefs            1                       # Average number of references to valid blocks. ((Count/Count))
board.cache_hierarchy.iptw_caches2.tags.warmupTick            0                       # The tick when the warmup percentage was hit. (Tick)
board.cache_hierarchy.iptw_caches2.tags.occupancies::processor.cores2.core.mmu.itb.walker    17.002466                       # Average occupied blocks per tick, per requestor ((Count/Tick))
board.cache_hierarchy.iptw_caches2.tags.avgOccs::processor.cores2.core.mmu.itb.walker     0.132832                       # Average percentage of cache occupancy ((Ratio/Tick))
board.cache_hierarchy.iptw_caches2.tags.avgOccs::total     0.132832                       # Average percentage of cache occupancy ((Ratio/Tick))
board.cache_hierarchy.iptw_caches2.tags.occupanciesTaskId::1024           17                       # Occupied blocks per task id (Count)
board.cache_hierarchy.iptw_caches2.tags.ageTaskId_1024::4           17                       # Occupied blocks per task id, per block age (Count)
board.cache_hierarchy.iptw_caches2.tags.ratioOccsTaskId::1024     0.132812                       # Ratio of occupied blocks and all blocks, per task id (Ratio)
board.cache_hierarchy.iptw_caches2.tags.tagAccesses           75                       # Number of tag accesses (Count)
[...]
board.processor.cores2.core.commitStats0.committedInstType::IntDiv         1155      0.00%     61.83% # Class of committed instruction. (Count)
board.processor.cores2.core.commitStats0.committedInstType::FloatAdd      2043520      2.13%     63.96% # Class of committed instruction. (Count)
board.processor.cores2.core.commitStats0.committedInstType::FloatCmp            0      0.00%     63.96% # Class of committed instruction. (Count)
board.processor.cores2.core.commitStats0.committedInstType::FloatCvt            0      0.00%     63.96% # Class of committed instruction. (Count)
board.processor.cores2.core.commitStats0.committedInstType::FloatMult      1914880      2.00%     65.96% # Class of committed instruction. (Count)
board.processor.cores2.core.commitStats0.committedInstType::FloatMultAcc            0      0.00%     65.96% # Class of committed instruction. (Count)
board.processor.cores2.core.commitStats0.committedInstType::FloatDiv        11776      0.01%     65.97% # Class of committed instruction. (Count)
board.processor.cores2.core.commitStats0.committedInstType::FloatMisc            0      0.00%     65.97% # Class of committed instruction. (Count)
board.processor.cores2.core.commitStats0.committedInstType::FloatSqrt            0      0.00%     65.97% # Class of committed instruction. (Count)
board.processor.cores2.core.commitStats0.committedInstType::SimdAdd            0      0.00%     65.97% # Class of committed instruction. (Count)
board.processor.cores2.core.commitStats0.committedInstType::SimdAddAcc            0      0.00%     65.97% # Class of committed instruction. (Count)
board.processor.cores2.core.commitStats0.committedInstType::SimdAlu            0      0.00%     65.97% # Class of committed instruction. (Count)
board.processor.cores2.core.commitStats0.committedInstType::SimdCmp            0      0.00%     65.97% # Class of committed instruction. (Count)
board.processor.cores2.core.commitStats0.committedInstType::SimdCvt            0      0.00%     65.97% # Class of committed instruction. (Count)
board.processor.cores2.core.commitStats0.committedInstType::SimdMisc            0      0.00%     65.97% # Class of committed instruction. (Count)
board.processor.cores2.core.commitStats0.committedInstType::SimdMult            0      0.00%     65.97% # Class of committed instruction. (Count)
board.processor.cores2.core.commitStats0.committedInstType::SimdMultAcc            0      0.00%     65.97% # Class of committed instruction. (Count)
board.processor.cores2.core.commitStats0.committedInstType::SimdMatMultAcc            0      0.00%     65.97% # Class of committed instruction. (Count)
board.processor.cores2.core.commitStats0.committedInstType::SimdShift            0      0.00%     65.97% # Class of committed instruction. (Count)
board.processor.cores2.core.commitStats0.committedInstType::SimdShiftAcc            0      0.00%     65.97% # Class of committed instruction. (Count)
board.processor.cores2.core.commitStats0.committedInstType::SimdDiv            0      0.00%     65.97% # Class of committed instruction. (Count)
board.processor.cores2.core.commitStats0.committedInstType::SimdSqrt            0      0.00%     65.97% # Class of committed instruction. (Count)
board.processor.cores2.core.commitStats0.committedInstType::SimdFloatAdd            0      0.00%     65.97% # Class of committed instruction. (Count)
board.processor.cores2.core.commitStats0.committedInstType::SimdFloatAlu            0      0.00%     65.97% # Class of committed instruction. (Count)
board.processor.cores2.core.commitStats0.committedInstType::SimdFloatCmp            0      0.00%     65.97% # Class of committed instruction. (Count)
board.processor.cores2.core.commitStats0.committedInstType::SimdFloatCvt            0      0.00%     65.97% # Class of committed instruction. (Count)
board.processor.cores2.core.commitStats0.committedInstType::SimdFloatDiv            0      0.00%     65.97% # Class of committed instruction. (Count)
board.processor.cores2.core.commitStats0.committedInstType::SimdFloatMisc            0      0.00%     65.97% # Class of committed instruction. (Count)
board.processor.cores2.core.commitStats0.committedInstType::SimdFloatMult            0      0.00%     65.97% # Class of committed instruction. (Count)
board.processor.cores2.core.commitStats0.committedInstType::SimdFloatMultAcc            0      0.00%     65.97% # Class of committed instruction. (Count)
board.processor.cores2.core.commitStats0.committedInstType::SimdFloatMatMultAcc            0      0.00%     65.97% # Class of committed instruction. (Count)
board.processor.cores2.core.commitStats0.committedInstType::SimdFloatSqrt            0      0.00%     65.97% # Class of committed instruction. (Count)
board.processor.cores2.core.commitStats0.committedInstType::SimdReduceAdd            0      0.00%     65.97% # Class of committed instruction. (Count)
board.processor.cores2.core.commitStats0.committedInstType::SimdReduceAlu            0      0.00%     65.97% # Class of committed instruction. (Count)
board.processor.cores2.core.commitStats0.committedInstType::SimdReduceCmp            0      0.00%     65.97% # Class of committed instruction. (Count)
board.processor.cores2.core.commitStats0.committedInstType::SimdFloatReduceAdd            0      0.00%     65.97% # Class of committed instruction. (Count)
board.processor.cores2.core.commitStats0.committedInstType::SimdFloatReduceCmp            0      0.00%     65.97% # Class of committed instruction. (Count)
board.processor.cores2.core.commitStats0.committedInstType::SimdAes            0      0.00%     65.97% # Class of committed instruction. (Count)
board.processor.cores2.core.commitStats0.committedInstType::SimdAesMix            0      0.00%     65.97% # Class of committed instruction. (Count)
board.processor.cores2.core.commitStats0.committedInstType::SimdSha1Hash            0      0.00%     65.97% # Class of committed instruction. (Count)
board.processor.cores2.core.commitStats0.committedInstType::SimdSha1Hash2            0      0.00%     65.97% # Class of committed instruction. (Count)
board.processor.cores2.core.commitStats0.committedInstType::SimdSha256Hash            0      0.00%     65.97% # Class of committed instruction. (Count)
board.processor.cores2.core.commitStats0.committedInstType::SimdSha256Hash2            0      0.00%     65.97% # Class of committed instruction. (Count)
board.processor.cores2.core.commitStats0.committedInstType::SimdShaSigma2            0      0.00%     65.97% # Class of committed instruction. (Count)
board.processor.cores2.core.commitStats0.committedInstType::SimdShaSigma3            0      0.00%     65.97% # Class of committed instruction. (Count)
board.processor.cores2.core.commitStats0.committedInstType::SimdPredAlu            0      0.00%     65.97% # Class of committed instruction. (Count)
board.processor.cores2.core.commitStats0.committedInstType::Matrix            0      0.00%     65.97% # Class of committed instruction. (Count)
board.processor.cores2.core.commitStats0.committedInstType::MatrixMov            0      0.00%     65.97% # Class of committed instruction. (Count)
board.processor.cores2.core.commitStats0.committedInstType::MatrixOP            0      0.00%     65.97% # Class of committed instruction. (Count)
board.processor.cores2.core.commitStats0.committedInstType::MemRead     21223713     22.12%     88.09% # Class of committed instruction. (Count)
board.processor.cores2.core.commitStats0.committedInstType::MemWrite      2918364      3.04%     91.13% # Class of committed instruction. (Count)
board.processor.cores2.core.commitStats0.committedInstType::FloatMemRead      6242432      6.51%     97.63% # Class of committed instruction. (Count)
board.processor.cores2.core.commitStats0.committedInstType::FloatMemWrite      2272288      2.37%    100.00% # Class of committed instruction. (Count)
board.processor.cores2.core.commitStats0.committedInstType::IprAccess            0      0.00%    100.00% # Class of committed instruction. (Count)
board.processor.cores2.core.commitStats0.committedInstType::InstPrefetch            0      0.00%    100.00% # Class of committed instruction. (Count)
board.processor.cores2.core.commitStats0.committedInstType::VectorUnitStrideLoad            0      0.00%    100.00% # Class of committed instruction. (Count)
board.processor.cores2.core.commitStats0.committedInstType::VectorUnitStrideStore            0      0.00%    100.00% # Class of committed instruction. (Count)
board.processor.cores2.core.commitStats0.committedInstType::VectorUnitStrideMaskLoad            0      0.00%    100.00% # Class of committed instruction. (Count)
board.processor.cores2.core.commitStats0.committedInstType::VectorUnitStrideMaskStore            0      0.00%    100.00% # Class of committed instruction. (Count)
board.processor.cores2.core.commitStats0.committedInstType::VectorStridedLoad            0      0.00%    100.00% # Class of committed instruction. (Count)
board.processor.cores2.core.commitStats0.committedInstType::VectorStridedStore            0      0.00%    100.00% # Class of committed instruction. (Count)
board.processor.cores2.core.commitStats0.committedInstType::VectorIndexedLoad            0      0.00%    100.00% # Class of committed instruction. (Count)
board.processor.cores2.core.commitStats0.committedInstType::VectorIndexedStore            0      0.00%    100.00% # Class of committed instruction. (Count)
board.processor.cores2.core.commitStats0.committedInstType::VectorUnitStrideFaultOnlyFirstLoad            0      0.00%    100.00% # Class of committed instruction. (Count)
board.processor.cores2.core.commitStats0.committedInstType::VectorWholeRegisterLoad            0      0.00%    100.00% # Class of committed instruction. (Count)
board.processor.cores2.core.commitStats0.committedInstType::VectorWholeRegisterStore            0      0.00%    100.00% # Class of committed instruction. (Count)
board.processor.cores2.core.commitStats0.committedInstType::VectorIntegerArith            0      0.00%    100.00% # Class of committed instruction. (Count)
board.processor.cores2.core.commitStats0.committedInstType::VectorFloatArith            0      0.00%    100.00% # Class of committed instruction. (Count)
board.processor.cores2.core.commitStats0.committedInstType::VectorFloatConvert            0      0.00%    100.00% # Class of committed instruction. (Count)
board.processor.cores2.core.commitStats0.committedInstType::VectorIntegerReduce            0      0.00%    100.00% # Class of committed instruction. (Count)
board.processor.cores2.core.commitStats0.committedInstType::VectorFloatReduce            0      0.00%    100.00% # Class of committed instruction. (Count)
board.processor.cores2.core.commitStats0.committedInstType::VectorMisc            0      0.00%    100.00% # Class of committed instruction. (Count)
board.processor.cores2.core.commitStats0.committedInstType::VectorIntegerExtension            0      0.00%    100.00% # Class of committed instruction. (Count)
board.processor.cores2.core.commitStats0.committedInstType::VectorConfig            0      0.00%    100.00% # Class of committed instruction. (Count)
board.processor.cores2.core.commitStats0.committedInstType::total     95958883                       # Class of committed instruction. (Count)
board.processor.cores2.core.commitStats0.committedControl::IsControl      5017141                       # Class of control type instructions committed (Count)
board.processor.cores2.core.commitStats0.committedControl::IsDirectControl      5010750                       # Class of control type instructions committed (Count)
board.processor.cores2.core.commitStats0.committedControl::IsIndirectControl         6205                       # Class of control type instructions committed (Count)
board.processor.cores2.core.commitStats0.committedControl::IsCondControl      2613745                       # Class of control type instructions committed (Count)
board.processor.cores2.core.commitStats0.committedControl::IsUncondControl      2403210                       # Class of control type instructions committed (Count)
board.processor.cores2.core.commitStats0.committedControl::IsCall         4348                       # Class of control type instructions committed (Count)
board.processor.cores2.core.commitStats0.committedControl::IsReturn         4588                       # Class of control type instructions committed (Count)
board.processor.cores2.core.exec_context.thread_0.numMatAluAccesses            0                       # Number of matrix alu accesses (Count)
board.processor.cores2.core.exec_context.thread_0.numCallsReturns         8936                       # Number of times a function call or return occured (Count)
board.processor.cores2.core.exec_context.thread_0.numMatInsts            0                       # Number of matrix instructions (Count)
board.processor.cores2.core.exec_context.thread_0.numIdleCycles            0                       # Number of idle cycles (Cycle)
board.processor.cores2.core.exec_context.thread_0.numBusyCycles    156845340                       # Number of busy cycles (Cycle)
board.processor.cores2.core.exec_context.thread_0.notIdleFraction            1                       # Percentage of non-idle cycles (Ratio)
board.processor.cores2.core.exec_context.thread_0.idleFraction            0                       # Percentage of idle cycles (Ratio)
board.processor.cores2.core.executeStats0.numInsts            0                       # Number of executed instructions (Count)
board.processor.cores2.core.executeStats0.numNop            0                       # Number of nop insts executed (Count)
board.processor.cores2.core.executeStats0.numBranches            0                       # Number of branches executed (Count)
board.processor.cores2.core.executeStats0.numLoadInsts            0                       # Number of load instructions executed (Count)
board.processor.cores2.core.executeStats0.numStoreInsts     32656797                       # Number of stores executed (Count)
board.processor.cores2.core.executeStats0.instRate            0                       # Inst execution rate ((Count/Cycle))
board.processor.cores2.core.executeStats0.numFpAluAccesses     12484896                       # Number of float alu accesses (Count)
board.processor.cores2.core.executeStats0.numFpRegReads     10212640                       # Number of times the floating registers were read (Count)
board.processor.cores2.core.executeStats0.numFpRegWrites     10212608                       # Number of times the floating registers were written (Count)
board.processor.cores2.core.executeStats0.numIntAluAccesses     89593135                       # Number of integer alu accesses (Count)
board.processor.cores2.core.executeStats0.numIntRegReads    107460993                       # Number of times the integer registers were read (Count)
board.processor.cores2.core.executeStats0.numIntRegWrites     75507252                       # Number of times the integer registers were written (Count)
board.processor.cores2.core.executeStats0.numMemRefs     32656797                       # Number of memory refs (Count)
board.processor.cores2.core.executeStats0.numMiscRegReads     20431172                       # Number of times the Misc registers were read (Count)
board.processor.cores2.core.executeStats0.numMiscRegWrites      7942183                       # Number of times the Misc registers were written (Count)
board.processor.cores2.core.executeStats0.numVecAluAccesses            0                       # Number of vector alu accesses (Count)
board.processor.cores2.core.executeStats0.numDiscardedOps            0                       # Number of ops (including micro ops) which were discarded before commit (Count)
board.processor.cores2.core.fetchStats0.numInsts     95958773                       # Number of instructions fetched (thread level) (Count)
board.processor.cores2.core.fetchStats0.numOps     95958883                       # Number of ops (including micro ops) fetched (thread level) (Count)
board.processor.cores2.core.fetchStats0.fetchRate     0.611805                       # Number of inst fetches per cycle ((Count/Cycle))
board.processor.cores2.core.fetchStats0.numBranches      5017141                       # Number of branches fetched (Count)
board.processor.cores2.core.fetchStats0.branchRate     0.031988                       # Number of branch fetches per cycle (Ratio)
board.processor.cores2.core.fetchStats0.numFetchSuspends            0                       # Number of times Execute suspended instruction fetching (Count)
board.processor.cores2.core.mmu.dtb.readHits     27463965                       # read hits (Count)
board.processor.cores2.core.mmu.dtb.readMisses           88                       # read misses (Count)
board.processor.cores2.core.mmu.dtb.readAccesses     27464053                       # read accesses (Count)
board.processor.cores2.core.mmu.dtb.writeHits      5189630                       # write hits (Count)
board.processor.cores2.core.mmu.dtb.writeMisses           13                       # write misses (Count)
board.processor.cores2.core.mmu.dtb.writeAccesses      5189643                       # write accesses (Count)
board.processor.cores2.core.mmu.dtb.hits     32653595                       # Total TLB (read and write) hits (Count)
board.processor.cores2.core.mmu.dtb.misses          101                       # Total TLB (read and write) misses (Count)
board.processor.cores2.core.mmu.dtb.accesses     32653696                       # Total TLB (read and write) accesses (Count)
board.processor.cores2.core.mmu.dtb.walker.power_state.pwrStateResidencyTicks::UNDEFINED 16939330873000                       # Cumulative time (in ticks) in various power states (Tick)
board.processor.cores2.core.mmu.itb.readHits    123554812                       # read hits (Count)
board.processor.cores2.core.mmu.itb.readMisses            6                       # read misses (Count)
board.processor.cores2.core.mmu.itb.readAccesses    123554818                       # read accesses (Count)
board.processor.cores2.core.mmu.itb.writeHits            0                       # write hits (Count)
board.processor.cores2.core.mmu.itb.writeMisses            0                       # write misses (Count)
board.processor.cores2.core.mmu.itb.writeAccesses            0                       # write accesses (Count)
board.processor.cores2.core.mmu.itb.hits    123554812                       # Total TLB (read and write) hits (Count)
board.processor.cores2.core.mmu.itb.misses            6                       # Total TLB (read and write) misses (Count)
board.processor.cores2.core.mmu.itb.accesses    123554818                       # Total TLB (read and write) accesses (Count)
board.processor.cores2.core.mmu.itb.walker.power_state.pwrStateResidencyTicks::UNDEFINED 16939330873000                       # Cumulative time (in ticks) in various power states (Tick)
board.processor.cores2.core.power_state.pwrStateResidencyTicks::ON 163909120000                       # Cumulative time (in ticks) in various power states (Tick)
board.processor.cores2.core.thread_0.numInsts            0                       # Number of Instructions committed (Count)
board.processor.cores2.core.thread_0.numOps            0                       # Number of Ops committed (Count)
board.processor.cores2.core.thread_0.numMemRefs            0                       # Number of Memory References (Count)
board.rng.power_state.pwrStateResidencyTicks::UNDEFINED 16939330873000                       # Cumulative time (in ticks) in various power states (Tick)
board.workload.inst.arm                             0                       # number of arm instructions executed (Count)
board.workload.inst.quiesce                         0                       # number of quiesce instructions executed (Count)

---------- End Simulation Statistics   ----------

