---------- Begin Simulation Statistics ----------
simSeconds                                   0.037184                       # Number of seconds simulated (Second)
simTicks                                  37183722000                       # Number of ticks simulated (Tick)
finalTick                                23697133381000                       # Number of ticks from beginning of simulation (restored from checkpoints and never reset) (Tick)
simFreq                                  1000000000000                       # The number of ticks per simulated second ((Tick/Second))
hostSeconds                                     76.19                       # Real time elapsed on the host (Second)
hostTickRate                                488028911                       # The number of ticks simulated per host second (ticks/s) ((Tick/Second))
hostMemory                                    8588688                       # Number of bytes of host memory used (Byte)
simInsts                                    407960231                       # Number of instructions simulated (Count)
simOps                                      408329151                       # Number of ops (including micro ops) simulated (Count)
hostInstRate                                  5354390                       # Simulator instruction rate (inst/s) ((Count/Second))
hostOpRate                                    5359231                       # Simulator op (including micro ops) rate (op/s) ((Count/Second))
board.bridge.power_state.pwrStateResidencyTicks::UNDEFINED 6757802424000                       # Cumulative time (in ticks) in various power states (Tick)
board.cache_hierarchy.dptw_caches0.demandHits::processor.cores0.core.mmu.dtb.walker         5912                       # number of demand (read+write) hits (Count)
board.cache_hierarchy.dptw_caches0.demandHits::total         5912                       # number of demand (read+write) hits (Count)
board.cache_hierarchy.dptw_caches0.overallHits::processor.cores0.core.mmu.dtb.walker         5912                       # number of overall hits (Count)
board.cache_hierarchy.dptw_caches0.overallHits::total         5912                       # number of overall hits (Count)
board.cache_hierarchy.dptw_caches0.demandMisses::processor.cores0.core.mmu.dtb.walker         1870                       # number of demand (read+write) misses (Count)
board.cache_hierarchy.dptw_caches0.demandMisses::total         1870                       # number of demand (read+write) misses (Count)
board.cache_hierarchy.dptw_caches0.overallMisses::processor.cores0.core.mmu.dtb.walker         1870                       # number of overall misses (Count)
board.cache_hierarchy.dptw_caches0.overallMisses::total         1870                       # number of overall misses (Count)
board.cache_hierarchy.dptw_caches0.demandMissLatency::processor.cores0.core.mmu.dtb.walker     38066000                       # number of demand (read+write) miss ticks (Tick)
board.cache_hierarchy.dptw_caches0.demandMissLatency::total     38066000                       # number of demand (read+write) miss ticks (Tick)
board.cache_hierarchy.dptw_caches0.overallMissLatency::processor.cores0.core.mmu.dtb.walker     38066000                       # number of overall miss ticks (Tick)
board.cache_hierarchy.dptw_caches0.overallMissLatency::total     38066000                       # number of overall miss ticks (Tick)
board.cache_hierarchy.dptw_caches0.demandAccesses::processor.cores0.core.mmu.dtb.walker         7782                       # number of demand (read+write) accesses (Count)
board.cache_hierarchy.dptw_caches0.demandAccesses::total         7782                       # number of demand (read+write) accesses (Count)
board.cache_hierarchy.dptw_caches0.overallAccesses::processor.cores0.core.mmu.dtb.walker         7782                       # number of overall (read+write) accesses (Count)
board.cache_hierarchy.dptw_caches0.overallAccesses::total         7782                       # number of overall (read+write) accesses (Count)
board.cache_hierarchy.dptw_caches0.demandMissRate::processor.cores0.core.mmu.dtb.walker     0.240298                       # miss rate for demand accesses (Ratio)
board.cache_hierarchy.dptw_caches0.demandMissRate::total     0.240298                       # miss rate for demand accesses (Ratio)
board.cache_hierarchy.dptw_caches0.overallMissRate::processor.cores0.core.mmu.dtb.walker     0.240298                       # miss rate for overall accesses (Ratio)
board.cache_hierarchy.dptw_caches0.overallMissRate::total     0.240298                       # miss rate for overall accesses (Ratio)
board.cache_hierarchy.dptw_caches0.demandAvgMissLatency::processor.cores0.core.mmu.dtb.walker 20356.149733                       # average overall miss latency in ticks ((Tick/Count))
board.cache_hierarchy.dptw_caches0.demandAvgMissLatency::total 20356.149733                       # average overall miss latency in ticks ((Tick/Count))
board.cache_hierarchy.dptw_caches0.overallAvgMissLatency::processor.cores0.core.mmu.dtb.walker 20356.149733                       # average overall miss latency ((Tick/Count))
board.cache_hierarchy.dptw_caches0.overallAvgMissLatency::total 20356.149733                       # average overall miss latency ((Tick/Count))
board.cache_hierarchy.dptw_caches0.blockedCycles::no_mshrs            0                       # number of cycles access was blocked (Cycle)
board.cache_hierarchy.dptw_caches0.blockedCycles::no_targets            0                       # number of cycles access was blocked (Cycle)
board.cache_hierarchy.dptw_caches0.blockedCauses::no_mshrs            0                       # number of times access was blocked (Count)
board.cache_hierarchy.dptw_caches0.blockedCauses::no_targets            0                       # number of times access was blocked (Count)
board.cache_hierarchy.dptw_caches0.avgBlocked::no_mshrs          nan                       # average number of cycles each access was blocked ((Cycle/Count))
board.cache_hierarchy.dptw_caches0.avgBlocked::no_targets          nan                       # average number of cycles each access was blocked ((Cycle/Count))
board.cache_hierarchy.dptw_caches0.writebacks::writebacks         1386                       # number of writebacks (Count)
board.cache_hierarchy.dptw_caches0.writebacks::total         1386                       # number of writebacks (Count)
board.cache_hierarchy.dptw_caches0.demandMshrMisses::processor.cores0.core.mmu.dtb.walker         1870                       # number of demand (read+write) MSHR misses (Count)
board.cache_hierarchy.dptw_caches0.demandMshrMisses::total         1870                       # number of demand (read+write) MSHR misses (Count)
board.cache_hierarchy.dptw_caches0.overallMshrMisses::processor.cores0.core.mmu.dtb.walker         1870                       # number of overall MSHR misses (Count)
board.cache_hierarchy.dptw_caches0.overallMshrMisses::total         1870                       # number of overall MSHR misses (Count)
board.cache_hierarchy.dptw_caches0.demandMshrMissLatency::processor.cores0.core.mmu.dtb.walker     36196000                       # number of demand (read+write) MSHR miss ticks (Tick)
board.cache_hierarchy.dptw_caches0.demandMshrMissLatency::total     36196000                       # number of demand (read+write) MSHR miss ticks (Tick)
board.cache_hierarchy.dptw_caches0.overallMshrMissLatency::processor.cores0.core.mmu.dtb.walker     36196000                       # number of overall MSHR miss ticks (Tick)
board.cache_hierarchy.dptw_caches0.overallMshrMissLatency::total     36196000                       # number of overall MSHR miss ticks (Tick)
board.cache_hierarchy.dptw_caches0.demandMshrMissRate::processor.cores0.core.mmu.dtb.walker     0.240298                       # mshr miss ratio for demand accesses (Ratio)
board.cache_hierarchy.dptw_caches0.demandMshrMissRate::total     0.240298                       # mshr miss ratio for demand accesses (Ratio)
board.cache_hierarchy.dptw_caches0.overallMshrMissRate::processor.cores0.core.mmu.dtb.walker     0.240298                       # mshr miss ratio for overall accesses (Ratio)
board.cache_hierarchy.dptw_caches0.overallMshrMissRate::total     0.240298                       # mshr miss ratio for overall accesses (Ratio)
board.cache_hierarchy.dptw_caches0.demandAvgMshrMissLatency::processor.cores0.core.mmu.dtb.walker 19356.149733                       # average overall mshr miss latency ((Tick/Count))
board.cache_hierarchy.dptw_caches0.demandAvgMshrMissLatency::total 19356.149733                       # average overall mshr miss latency ((Tick/Count))
board.cache_hierarchy.dptw_caches0.overallAvgMshrMissLatency::processor.cores0.core.mmu.dtb.walker 19356.149733                       # average overall mshr miss latency ((Tick/Count))
board.cache_hierarchy.dptw_caches0.overallAvgMshrMissLatency::total 19356.149733                       # average overall mshr miss latency ((Tick/Count))
board.cache_hierarchy.dptw_caches0.replacements         1386                       # number of replacements (Count)
board.cache_hierarchy.dptw_caches0.ReadReq.hits::processor.cores0.core.mmu.dtb.walker         5912                       # number of ReadReq hits (Count)
board.cache_hierarchy.dptw_caches0.ReadReq.hits::total         5912                       # number of ReadReq hits (Count)
board.cache_hierarchy.dptw_caches0.ReadReq.misses::processor.cores0.core.mmu.dtb.walker         1870                       # number of ReadReq misses (Count)
board.cache_hierarchy.dptw_caches0.ReadReq.misses::total         1870                       # number of ReadReq misses (Count)
board.cache_hierarchy.dptw_caches0.ReadReq.missLatency::processor.cores0.core.mmu.dtb.walker     38066000                       # number of ReadReq miss ticks (Tick)
board.cache_hierarchy.dptw_caches0.ReadReq.missLatency::total     38066000                       # number of ReadReq miss ticks (Tick)
board.cache_hierarchy.dptw_caches0.ReadReq.accesses::processor.cores0.core.mmu.dtb.walker         7782                       # number of ReadReq accesses(hits+misses) (Count)
board.cache_hierarchy.dptw_caches0.ReadReq.accesses::total         7782                       # number of ReadReq accesses(hits+misses) (Count)
board.cache_hierarchy.dptw_caches0.ReadReq.missRate::processor.cores0.core.mmu.dtb.walker     0.240298                       # miss rate for ReadReq accesses (Ratio)
board.cache_hierarchy.dptw_caches0.ReadReq.missRate::total     0.240298                       # miss rate for ReadReq accesses (Ratio)
board.cache_hierarchy.dptw_caches0.ReadReq.avgMissLatency::processor.cores0.core.mmu.dtb.walker 20356.149733                       # average ReadReq miss latency ((Tick/Count))
board.cache_hierarchy.dptw_caches0.ReadReq.avgMissLatency::total 20356.149733                       # average ReadReq miss latency ((Tick/Count))
board.cache_hierarchy.dptw_caches0.ReadReq.mshrMisses::processor.cores0.core.mmu.dtb.walker         1870                       # number of ReadReq MSHR misses (Count)
board.cache_hierarchy.dptw_caches0.ReadReq.mshrMisses::total         1870                       # number of ReadReq MSHR misses (Count)
board.cache_hierarchy.dptw_caches0.ReadReq.mshrMissLatency::processor.cores0.core.mmu.dtb.walker     36196000                       # number of ReadReq MSHR miss ticks (Tick)
board.cache_hierarchy.dptw_caches0.ReadReq.mshrMissLatency::total     36196000                       # number of ReadReq MSHR miss ticks (Tick)
board.cache_hierarchy.dptw_caches0.ReadReq.mshrMissRate::processor.cores0.core.mmu.dtb.walker     0.240298                       # mshr miss rate for ReadReq accesses (Ratio)
board.cache_hierarchy.dptw_caches0.ReadReq.mshrMissRate::total     0.240298                       # mshr miss rate for ReadReq accesses (Ratio)
board.cache_hierarchy.dptw_caches0.ReadReq.avgMshrMissLatency::processor.cores0.core.mmu.dtb.walker 19356.149733                       # average ReadReq mshr miss latency ((Tick/Count))
board.cache_hierarchy.dptw_caches0.ReadReq.avgMshrMissLatency::total 19356.149733                       # average ReadReq mshr miss latency ((Tick/Count))
board.cache_hierarchy.dptw_caches0.power_state.pwrStateResidencyTicks::UNDEFINED 6757802424000                       # Cumulative time (in ticks) in various power states (Tick)
board.cache_hierarchy.dptw_caches0.tags.tagsInUse    50.695303                       # Average ticks per tags in use ((Tick/Count))
board.cache_hierarchy.dptw_caches0.tags.totalRefs         2489                       # Total number of references to valid blocks. (Count)
board.cache_hierarchy.dptw_caches0.tags.sampledRefs         1819                       # Sample count of references to valid blocks. (Count)
board.cache_hierarchy.dptw_caches0.tags.avgRefs     1.368334                       # Average number of references to valid blocks. ((Count/Count))
board.cache_hierarchy.dptw_caches0.tags.warmupTick            0                       # The tick when the warmup percentage was hit. (Tick)
board.cache_hierarchy.dptw_caches0.tags.occupancies::processor.cores0.core.mmu.dtb.walker    50.695303                       # Average occupied blocks per tick, per requestor ((Count/Tick))
board.cache_hierarchy.dptw_caches0.tags.avgOccs::processor.cores0.core.mmu.dtb.walker     0.396057                       # Average percentage of cache occupancy ((Ratio/Tick))
board.cache_hierarchy.dptw_caches0.tags.avgOccs::total     0.396057                       # Average percentage of cache occupancy ((Ratio/Tick))
board.cache_hierarchy.dptw_caches0.tags.occupanciesTaskId::1024           58                       # Occupied blocks per task id (Count)
board.cache_hierarchy.dptw_caches0.tags.ageTaskId_1024::0            6                       # Occupied blocks per task id, per block age (Count)
board.cache_hierarchy.dptw_caches0.tags.ageTaskId_1024::2            7                       # Occupied blocks per task id, per block age (Count)
board.cache_hierarchy.dptw_caches0.tags.ageTaskId_1024::3           30                       # Occupied blocks per task id, per block age (Count)
board.cache_hierarchy.dptw_caches0.tags.ageTaskId_1024::4           15                       # Occupied blocks per task id, per block age (Count)
board.cache_hierarchy.dptw_caches0.tags.ratioOccsTaskId::1024     0.453125                       # Ratio of occupied blocks and all blocks, per task id (Ratio)
board.cache_hierarchy.dptw_caches0.tags.tagAccesses        32998                       # Number of tag accesses (Count)
board.cache_hierarchy.dptw_caches0.tags.dataAccesses        32998                       # Number of data accesses (Count)
board.cache_hierarchy.dptw_caches0.tags.power_state.pwrStateResidencyTicks::UNDEFINED 6757802424000                       # Cumulative time (in ticks) in various power states (Tick)
board.cache_hierarchy.dptw_caches1.demandHits::processor.cores1.core.mmu.dtb.walker         5912                       # number of demand (read+write) hits (Count)
board.cache_hierarchy.dptw_caches1.demandHits::total         5912                       # number of demand (read+write) hits (Count)
board.cache_hierarchy.dptw_caches1.overallHits::processor.cores1.core.mmu.dtb.walker         5912                       # number of overall hits (Count)
board.cache_hierarchy.dptw_caches1.overallHits::total         5912                       # number of overall hits (Count)
board.cache_hierarchy.dptw_caches1.demandMisses::processor.cores1.core.mmu.dtb.walker         1787                       # number of demand (read+write) misses (Count)
board.cache_hierarchy.dptw_caches1.demandMisses::total         1787                       # number of demand (read+write) misses (Count)
board.cache_hierarchy.dptw_caches1.overallMisses::processor.cores1.core.mmu.dtb.walker         1787                       # number of overall misses (Count)
board.cache_hierarchy.dptw_caches1.overallMisses::total         1787                       # number of overall misses (Count)
board.cache_hierarchy.dptw_caches1.demandMissLatency::processor.cores1.core.mmu.dtb.walker     34034000                       # number of demand (read+write) miss ticks (Tick)
board.cache_hierarchy.dptw_caches1.demandMissLatency::total     34034000                       # number of demand (read+write) miss ticks (Tick)
board.cache_hierarchy.dptw_caches1.overallMissLatency::processor.cores1.core.mmu.dtb.walker     34034000                       # number of overall miss ticks (Tick)
board.cache_hierarchy.dptw_caches1.overallMissLatency::total     34034000                       # number of overall miss ticks (Tick)
board.cache_hierarchy.dptw_caches1.demandAccesses::processor.cores1.core.mmu.dtb.walker         7699                       # number of demand (read+write) accesses (Count)
board.cache_hierarchy.dptw_caches1.demandAccesses::total         7699                       # number of demand (read+write) accesses (Count)
board.cache_hierarchy.dptw_caches1.overallAccesses::processor.cores1.core.mmu.dtb.walker         7699                       # number of overall (read+write) accesses (Count)
board.cache_hierarchy.dptw_caches1.overallAccesses::total         7699                       # number of overall (read+write) accesses (Count)
board.cache_hierarchy.dptw_caches1.demandMissRate::processor.cores1.core.mmu.dtb.walker     0.232108                       # miss rate for demand accesses (Ratio)
board.cache_hierarchy.dptw_caches1.demandMissRate::total     0.232108                       # miss rate for demand accesses (Ratio)
board.cache_hierarchy.dptw_caches1.overallMissRate::processor.cores1.core.mmu.dtb.walker     0.232108                       # miss rate for overall accesses (Ratio)
board.cache_hierarchy.dptw_caches1.overallMissRate::total     0.232108                       # miss rate for overall accesses (Ratio)
board.cache_hierarchy.dptw_caches1.demandAvgMissLatency::processor.cores1.core.mmu.dtb.walker 19045.327364                       # average overall miss latency in ticks ((Tick/Count))
board.cache_hierarchy.dptw_caches1.demandAvgMissLatency::total 19045.327364                       # average overall miss latency in ticks ((Tick/Count))
board.cache_hierarchy.dptw_caches1.overallAvgMissLatency::processor.cores1.core.mmu.dtb.walker 19045.327364                       # average overall miss latency ((Tick/Count))
board.cache_hierarchy.dptw_caches1.overallAvgMissLatency::total 19045.327364                       # average overall miss latency ((Tick/Count))
board.cache_hierarchy.dptw_caches1.blockedCycles::no_mshrs            0                       # number of cycles access was blocked (Cycle)
board.cache_hierarchy.dptw_caches1.blockedCycles::no_targets            0                       # number of cycles access was blocked (Cycle)
board.cache_hierarchy.dptw_caches1.blockedCauses::no_mshrs            0                       # number of times access was blocked (Count)
board.cache_hierarchy.dptw_caches1.blockedCauses::no_targets            0                       # number of times access was blocked (Count)
board.cache_hierarchy.dptw_caches1.avgBlocked::no_mshrs          nan                       # average number of cycles each access was blocked ((Cycle/Count))
board.cache_hierarchy.dptw_caches1.avgBlocked::no_targets          nan                       # average number of cycles each access was blocked ((Cycle/Count))
board.cache_hierarchy.dptw_caches1.writebacks::writebacks         1316                       # number of writebacks (Count)
board.cache_hierarchy.dptw_caches1.writebacks::total         1316                       # number of writebacks (Count)
board.cache_hierarchy.dptw_caches1.demandMshrMisses::processor.cores1.core.mmu.dtb.walker         1787                       # number of demand (read+write) MSHR misses (Count)
board.cache_hierarchy.dptw_caches1.demandMshrMisses::total         1787                       # number of demand (read+write) MSHR misses (Count)
board.cache_hierarchy.dptw_caches1.overallMshrMisses::processor.cores1.core.mmu.dtb.walker         1787                       # number of overall MSHR misses (Count)
board.cache_hierarchy.dptw_caches1.overallMshrMisses::total         1787                       # number of overall MSHR misses (Count)
board.cache_hierarchy.dptw_caches1.demandMshrMissLatency::processor.cores1.core.mmu.dtb.walker     32247000                       # number of demand (read+write) MSHR miss ticks (Tick)
board.cache_hierarchy.dptw_caches1.demandMshrMissLatency::total     32247000                       # number of demand (read+write) MSHR miss ticks (Tick)
board.cache_hierarchy.dptw_caches1.overallMshrMissLatency::processor.cores1.core.mmu.dtb.walker     32247000                       # number of overall MSHR miss ticks (Tick)
board.cache_hierarchy.dptw_caches1.overallMshrMissLatency::total     32247000                       # number of overall MSHR miss ticks (Tick)
board.cache_hierarchy.dptw_caches1.demandMshrMissRate::processor.cores1.core.mmu.dtb.walker     0.232108                       # mshr miss ratio for demand accesses (Ratio)
board.cache_hierarchy.dptw_caches1.demandMshrMissRate::total     0.232108                       # mshr miss ratio for demand accesses (Ratio)
board.cache_hierarchy.dptw_caches1.overallMshrMissRate::processor.cores1.core.mmu.dtb.walker     0.232108                       # mshr miss ratio for overall accesses (Ratio)
board.cache_hierarchy.dptw_caches1.overallMshrMissRate::total     0.232108                       # mshr miss ratio for overall accesses (Ratio)
board.cache_hierarchy.dptw_caches1.demandAvgMshrMissLatency::processor.cores1.core.mmu.dtb.walker 18045.327364                       # average overall mshr miss latency ((Tick/Count))
board.cache_hierarchy.dptw_caches1.demandAvgMshrMissLatency::total 18045.327364                       # average overall mshr miss latency ((Tick/Count))
board.cache_hierarchy.dptw_caches1.overallAvgMshrMissLatency::processor.cores1.core.mmu.dtb.walker 18045.327364                       # average overall mshr miss latency ((Tick/Count))
board.cache_hierarchy.dptw_caches1.overallAvgMshrMissLatency::total 18045.327364                       # average overall mshr miss latency ((Tick/Count))
board.cache_hierarchy.dptw_caches1.replacements         1316                       # number of replacements (Count)
board.cache_hierarchy.dptw_caches1.ReadReq.hits::processor.cores1.core.mmu.dtb.walker         5912                       # number of ReadReq hits (Count)
board.cache_hierarchy.dptw_caches1.ReadReq.hits::total         5912                       # number of ReadReq hits (Count)
board.cache_hierarchy.dptw_caches1.ReadReq.misses::processor.cores1.core.mmu.dtb.walker         1787                       # number of ReadReq misses (Count)
board.cache_hierarchy.dptw_caches1.ReadReq.misses::total         1787                       # number of ReadReq misses (Count)
board.cache_hierarchy.dptw_caches1.ReadReq.missLatency::processor.cores1.core.mmu.dtb.walker     34034000                       # number of ReadReq miss ticks (Tick)
board.cache_hierarchy.dptw_caches1.ReadReq.missLatency::total     34034000                       # number of ReadReq miss ticks (Tick)
board.cache_hierarchy.dptw_caches1.ReadReq.accesses::processor.cores1.core.mmu.dtb.walker         7699                       # number of ReadReq accesses(hits+misses) (Count)
board.cache_hierarchy.dptw_caches1.ReadReq.accesses::total         7699                       # number of ReadReq accesses(hits+misses) (Count)
board.cache_hierarchy.dptw_caches1.ReadReq.missRate::processor.cores1.core.mmu.dtb.walker     0.232108                       # miss rate for ReadReq accesses (Ratio)
board.cache_hierarchy.dptw_caches1.ReadReq.missRate::total     0.232108                       # miss rate for ReadReq accesses (Ratio)
board.cache_hierarchy.dptw_caches1.ReadReq.avgMissLatency::processor.cores1.core.mmu.dtb.walker 19045.327364                       # average ReadReq miss latency ((Tick/Count))
board.cache_hierarchy.dptw_caches1.ReadReq.avgMissLatency::total 19045.327364                       # average ReadReq miss latency ((Tick/Count))
board.cache_hierarchy.dptw_caches1.ReadReq.mshrMisses::processor.cores1.core.mmu.dtb.walker         1787                       # number of ReadReq MSHR misses (Count)
board.cache_hierarchy.dptw_caches1.ReadReq.mshrMisses::total         1787                       # number of ReadReq MSHR misses (Count)
board.cache_hierarchy.dptw_caches1.ReadReq.mshrMissLatency::processor.cores1.core.mmu.dtb.walker     32247000                       # number of ReadReq MSHR miss ticks (Tick)
board.cache_hierarchy.dptw_caches1.ReadReq.mshrMissLatency::total     32247000                       # number of ReadReq MSHR miss ticks (Tick)
board.cache_hierarchy.dptw_caches1.ReadReq.mshrMissRate::processor.cores1.core.mmu.dtb.walker     0.232108                       # mshr miss rate for ReadReq accesses (Ratio)
board.cache_hierarchy.dptw_caches1.ReadReq.mshrMissRate::total     0.232108                       # mshr miss rate for ReadReq accesses (Ratio)
board.cache_hierarchy.dptw_caches1.ReadReq.avgMshrMissLatency::processor.cores1.core.mmu.dtb.walker 18045.327364                       # average ReadReq mshr miss latency ((Tick/Count))
board.cache_hierarchy.dptw_caches1.ReadReq.avgMshrMissLatency::total 18045.327364                       # average ReadReq mshr miss latency ((Tick/Count))
board.cache_hierarchy.dptw_caches1.power_state.pwrStateResidencyTicks::UNDEFINED 6757802424000                       # Cumulative time (in ticks) in various power states (Tick)
board.cache_hierarchy.dptw_caches1.tags.tagsInUse    74.328382                       # Average ticks per tags in use ((Tick/Count))
board.cache_hierarchy.dptw_caches1.tags.totalRefs         2591                       # Total number of references to valid blocks. (Count)
board.cache_hierarchy.dptw_caches1.tags.sampledRefs         1750                       # Sample count of references to valid blocks. (Count)
board.cache_hierarchy.dptw_caches1.tags.avgRefs     1.480571                       # Average number of references to valid blocks. ((Count/Count))
board.cache_hierarchy.dptw_caches1.tags.warmupTick            0                       # The tick when the warmup percentage was hit. (Tick)
board.cache_hierarchy.dptw_caches1.tags.occupancies::processor.cores1.core.mmu.dtb.walker    74.328382                       # Average occupied blocks per tick, per requestor ((Count/Tick))
board.cache_hierarchy.dptw_caches1.tags.avgOccs::processor.cores1.core.mmu.dtb.walker     0.580690                       # Average percentage of cache occupancy ((Ratio/Tick))
board.cache_hierarchy.dptw_caches1.tags.avgOccs::total     0.580690                       # Average percentage of cache occupancy ((Ratio/Tick))
board.cache_hierarchy.dptw_caches1.tags.occupanciesTaskId::1024           80                       # Occupied blocks per task id (Count)
board.cache_hierarchy.dptw_caches1.tags.ageTaskId_1024::1            5                       # Occupied blocks per task id, per block age (Count)
board.cache_hierarchy.dptw_caches1.tags.ageTaskId_1024::2            6                       # Occupied blocks per task id, per block age (Count)
board.cache_hierarchy.dptw_caches1.tags.ageTaskId_1024::3           35                       # Occupied blocks per task id, per block age (Count)
board.cache_hierarchy.dptw_caches1.tags.ageTaskId_1024::4           34                       # Occupied blocks per task id, per block age (Count)
board.cache_hierarchy.dptw_caches1.tags.ratioOccsTaskId::1024     0.625000                       # Ratio of occupied blocks and all blocks, per task id (Ratio)
board.cache_hierarchy.dptw_caches1.tags.tagAccesses        32583                       # Number of tag accesses (Count)
board.cache_hierarchy.dptw_caches1.tags.dataAccesses        32583                       # Number of data accesses (Count)
board.cache_hierarchy.dptw_caches1.tags.power_state.pwrStateResidencyTicks::UNDEFINED 6757802424000                       # Cumulative time (in ticks) in various power states (Tick)
board.cache_hierarchy.dptw_caches2.demandHits::processor.cores2.core.mmu.dtb.walker         6351                       # number of demand (read+write) hits (Count)
board.cache_hierarchy.dptw_caches2.demandHits::total         6351                       # number of demand (read+write) hits (Count)
board.cache_hierarchy.dptw_caches2.overallHits::processor.cores2.core.mmu.dtb.walker         6351                       # number of overall hits (Count)
board.cache_hierarchy.dptw_caches2.overallHits::total         6351                       # number of overall hits (Count)
board.cache_hierarchy.dptw_caches2.demandMisses::processor.cores2.core.mmu.dtb.walker         1785                       # number of demand (read+write) misses (Count)
board.cache_hierarchy.dptw_caches2.demandMisses::total         1785                       # number of demand (read+write) misses (Count)
board.cache_hierarchy.dptw_caches2.overallMisses::processor.cores2.core.mmu.dtb.walker         1785                       # number of overall misses (Count)
board.cache_hierarchy.dptw_caches2.overallMisses::total         1785                       # number of overall misses (Count)
board.cache_hierarchy.dptw_caches2.demandMissLatency::processor.cores2.core.mmu.dtb.walker     33532000                       # number of demand (read+write) miss ticks (Tick)
board.cache_hierarchy.dptw_caches2.demandMissLatency::total     33532000                       # number of demand (read+write) miss ticks (Tick)
board.cache_hierarchy.dptw_caches2.overallMissLatency::processor.cores2.core.mmu.dtb.walker     33532000                       # number of overall miss ticks (Tick)
board.cache_hierarchy.dptw_caches2.overallMissLatency::total     33532000                       # number of overall miss ticks (Tick)
board.cache_hierarchy.dptw_caches2.demandAccesses::processor.cores2.core.mmu.dtb.walker         8136                       # number of demand (read+write) accesses (Count)
board.cache_hierarchy.dptw_caches2.demandAccesses::total         8136                       # number of demand (read+write) accesses (Count)
board.cache_hierarchy.dptw_caches2.overallAccesses::processor.cores2.core.mmu.dtb.walker         8136                       # number of overall (read+write) accesses (Count)
board.cache_hierarchy.dptw_caches2.overallAccesses::total         8136                       # number of overall (read+write) accesses (Count)
board.cache_hierarchy.dptw_caches2.demandMissRate::processor.cores2.core.mmu.dtb.walker     0.219395                       # miss rate for demand accesses (Ratio)
board.cache_hierarchy.dptw_caches2.demandMissRate::total     0.219395                       # miss rate for demand accesses (Ratio)
board.cache_hierarchy.dptw_caches2.overallMissRate::processor.cores2.core.mmu.dtb.walker     0.219395                       # miss rate for overall accesses (Ratio)
board.cache_hierarchy.dptw_caches2.overallMissRate::total     0.219395                       # miss rate for overall accesses (Ratio)
board.cache_hierarchy.dptw_caches2.demandAvgMissLatency::processor.cores2.core.mmu.dtb.walker 18785.434174                       # average overall miss latency in ticks ((Tick/Count))
board.cache_hierarchy.dptw_caches2.demandAvgMissLatency::total 18785.434174                       # average overall miss latency in ticks ((Tick/Count))
board.cache_hierarchy.dptw_caches2.overallAvgMissLatency::processor.cores2.core.mmu.dtb.walker 18785.434174                       # average overall miss latency ((Tick/Count))
board.cache_hierarchy.dptw_caches2.overallAvgMissLatency::total 18785.434174                       # average overall miss latency ((Tick/Count))
board.cache_hierarchy.dptw_caches2.blockedCycles::no_mshrs            0                       # number of cycles access was blocked (Cycle)
board.cache_hierarchy.dptw_caches2.blockedCycles::no_targets            0                       # number of cycles access was blocked (Cycle)
board.cache_hierarchy.dptw_caches2.blockedCauses::no_mshrs            0                       # number of times access was blocked (Count)
board.cache_hierarchy.dptw_caches2.blockedCauses::no_targets            0                       # number of times access was blocked (Count)
board.cache_hierarchy.dptw_caches2.avgBlocked::no_mshrs          nan                       # average number of cycles each access was blocked ((Cycle/Count))
board.cache_hierarchy.dptw_caches2.avgBlocked::no_targets          nan                       # average number of cycles each access was blocked ((Cycle/Count))
board.cache_hierarchy.dptw_caches2.writebacks::writebacks         1349                       # number of writebacks (Count)
board.cache_hierarchy.dptw_caches2.writebacks::total         1349                       # number of writebacks (Count)
board.cache_hierarchy.dptw_caches2.demandMshrMisses::processor.cores2.core.mmu.dtb.walker         1785                       # number of demand (read+write) MSHR misses (Count)
board.cache_hierarchy.dptw_caches2.demandMshrMisses::total         1785                       # number of demand (read+write) MSHR misses (Count)
board.cache_hierarchy.dptw_caches2.overallMshrMisses::processor.cores2.core.mmu.dtb.walker         1785                       # number of overall MSHR misses (Count)
board.cache_hierarchy.dptw_caches2.overallMshrMisses::total         1785                       # number of overall MSHR misses (Count)
board.cache_hierarchy.dptw_caches2.demandMshrMissLatency::processor.cores2.core.mmu.dtb.walker     31747000                       # number of demand (read+write) MSHR miss ticks (Tick)
board.cache_hierarchy.dptw_caches2.demandMshrMissLatency::total     31747000                       # number of demand (read+write) MSHR miss ticks (Tick)
board.cache_hierarchy.dptw_caches2.overallMshrMissLatency::processor.cores2.core.mmu.dtb.walker     31747000                       # number of overall MSHR miss ticks (Tick)
board.cache_hierarchy.dptw_caches2.overallMshrMissLatency::total     31747000                       # number of overall MSHR miss ticks (Tick)
board.cache_hierarchy.dptw_caches2.demandMshrMissRate::processor.cores2.core.mmu.dtb.walker     0.219395                       # mshr miss ratio for demand accesses (Ratio)
board.cache_hierarchy.dptw_caches2.demandMshrMissRate::total     0.219395                       # mshr miss ratio for demand accesses (Ratio)
board.cache_hierarchy.dptw_caches2.overallMshrMissRate::processor.cores2.core.mmu.dtb.walker     0.219395                       # mshr miss ratio for overall accesses (Ratio)
board.cache_hierarchy.dptw_caches2.overallMshrMissRate::total     0.219395                       # mshr miss ratio for overall accesses (Ratio)
board.cache_hierarchy.dptw_caches2.demandAvgMshrMissLatency::processor.cores2.core.mmu.dtb.walker 17785.434174                       # average overall mshr miss latency ((Tick/Count))
board.cache_hierarchy.dptw_caches2.demandAvgMshrMissLatency::total 17785.434174                       # average overall mshr miss latency ((Tick/Count))
board.cache_hierarchy.dptw_caches2.overallAvgMshrMissLatency::processor.cores2.core.mmu.dtb.walker 17785.434174                       # average overall mshr miss latency ((Tick/Count))
board.cache_hierarchy.dptw_caches2.overallAvgMshrMissLatency::total 17785.434174                       # average overall mshr miss latency ((Tick/Count))
board.cache_hierarchy.dptw_caches2.replacements         1349                       # number of replacements (Count)
board.cache_hierarchy.dptw_caches2.ReadReq.hits::processor.cores2.core.mmu.dtb.walker         6351                       # number of ReadReq hits (Count)
board.cache_hierarchy.dptw_caches2.ReadReq.hits::total         6351                       # number of ReadReq hits (Count)
board.cache_hierarchy.dptw_caches2.ReadReq.misses::processor.cores2.core.mmu.dtb.walker         1785                       # number of ReadReq misses (Count)
board.cache_hierarchy.dptw_caches2.ReadReq.misses::total         1785                       # number of ReadReq misses (Count)
board.cache_hierarchy.dptw_caches2.ReadReq.missLatency::processor.cores2.core.mmu.dtb.walker     33532000                       # number of ReadReq miss ticks (Tick)
board.cache_hierarchy.dptw_caches2.ReadReq.missLatency::total     33532000                       # number of ReadReq miss ticks (Tick)
board.cache_hierarchy.dptw_caches2.ReadReq.accesses::processor.cores2.core.mmu.dtb.walker         8136                       # number of ReadReq accesses(hits+misses) (Count)
board.cache_hierarchy.dptw_caches2.ReadReq.accesses::total         8136                       # number of ReadReq accesses(hits+misses) (Count)
board.cache_hierarchy.dptw_caches2.ReadReq.missRate::processor.cores2.core.mmu.dtb.walker     0.219395                       # miss rate for ReadReq accesses (Ratio)
board.cache_hierarchy.dptw_caches2.ReadReq.missRate::total     0.219395                       # miss rate for ReadReq accesses (Ratio)
board.cache_hierarchy.dptw_caches2.ReadReq.avgMissLatency::processor.cores2.core.mmu.dtb.walker 18785.434174                       # average ReadReq miss latency ((Tick/Count))
board.cache_hierarchy.dptw_caches2.ReadReq.avgMissLatency::total 18785.434174                       # average ReadReq miss latency ((Tick/Count))
board.cache_hierarchy.dptw_caches2.ReadReq.mshrMisses::processor.cores2.core.mmu.dtb.walker         1785                       # number of ReadReq MSHR misses (Count)
board.cache_hierarchy.dptw_caches2.ReadReq.mshrMisses::total         1785                       # number of ReadReq MSHR misses (Count)
board.cache_hierarchy.dptw_caches2.ReadReq.mshrMissLatency::processor.cores2.core.mmu.dtb.walker     31747000                       # number of ReadReq MSHR miss ticks (Tick)
board.cache_hierarchy.dptw_caches2.ReadReq.mshrMissLatency::total     31747000                       # number of ReadReq MSHR miss ticks (Tick)
board.cache_hierarchy.dptw_caches2.ReadReq.mshrMissRate::processor.cores2.core.mmu.dtb.walker     0.219395                       # mshr miss rate for ReadReq accesses (Ratio)
board.cache_hierarchy.dptw_caches2.ReadReq.mshrMissRate::total     0.219395                       # mshr miss rate for ReadReq accesses (Ratio)
board.cache_hierarchy.dptw_caches2.ReadReq.avgMshrMissLatency::processor.cores2.core.mmu.dtb.walker 17785.434174                       # average ReadReq mshr miss latency ((Tick/Count))
board.cache_hierarchy.dptw_caches2.ReadReq.avgMshrMissLatency::total 17785.434174                       # average ReadReq mshr miss latency ((Tick/Count))
board.cache_hierarchy.dptw_caches2.power_state.pwrStateResidencyTicks::UNDEFINED 6757802424000                       # Cumulative time (in ticks) in various power states (Tick)
board.cache_hierarchy.dptw_caches2.tags.tagsInUse   102.570719                       # Average ticks per tags in use ((Tick/Count))
board.cache_hierarchy.dptw_caches2.tags.totalRefs         2693                       # Total number of references to valid blocks. (Count)
board.cache_hierarchy.dptw_caches2.tags.sampledRefs         1776                       # Sample count of references to valid blocks. (Count)
board.cache_hierarchy.dptw_caches2.tags.avgRefs     1.516329                       # Average number of references to valid blocks. ((Count/Count))
board.cache_hierarchy.dptw_caches2.tags.warmupTick            0                       # The tick when the warmup percentage was hit. (Tick)
board.cache_hierarchy.dptw_caches2.tags.occupancies::processor.cores2.core.mmu.dtb.walker   102.570719                       # Average occupied blocks per tick, per requestor ((Count/Tick))
board.cache_hierarchy.dptw_caches2.tags.avgOccs::processor.cores2.core.mmu.dtb.walker     0.801334                       # Average percentage of cache occupancy ((Ratio/Tick))
board.cache_hierarchy.dptw_caches2.tags.avgOccs::total     0.801334                       # Average percentage of cache occupancy ((Ratio/Tick))
board.cache_hierarchy.dptw_caches2.tags.occupanciesTaskId::1024          105                       # Occupied blocks per task id (Count)
board.cache_hierarchy.dptw_caches2.tags.ageTaskId_1024::1            2                       # Occupied blocks per task id, per block age (Count)
board.cache_hierarchy.dptw_caches2.tags.ageTaskId_1024::2            9                       # Occupied blocks per task id, per block age (Count)
board.cache_hierarchy.dptw_caches2.tags.ageTaskId_1024::3           32                       # Occupied blocks per task id, per block age (Count)
board.cache_hierarchy.dptw_caches2.tags.ageTaskId_1024::4           62                       # Occupied blocks per task id, per block age (Count)
board.cache_hierarchy.dptw_caches2.tags.ratioOccsTaskId::1024     0.820312                       # Ratio of occupied blocks and all blocks, per task id (Ratio)
board.cache_hierarchy.dptw_caches2.tags.tagAccesses        34329                       # Number of tag accesses (Count)
board.cache_hierarchy.dptw_caches2.tags.dataAccesses        34329                       # Number of data accesses (Count)
board.cache_hierarchy.dptw_caches2.tags.power_state.pwrStateResidencyTicks::UNDEFINED 6757802424000                       # Cumulative time (in ticks) in various power states (Tick)
board.cache_hierarchy.iocache.blockedCycles::no_mshrs            0                       # number of cycles access was blocked (Cycle)
board.cache_hierarchy.iocache.blockedCycles::no_targets            0                       # number of cycles access was blocked (Cycle)
board.cache_hierarchy.iocache.blockedCauses::no_mshrs            0                       # number of times access was blocked (Count)
board.cache_hierarchy.iocache.blockedCauses::no_targets            0                       # number of times access was blocked (Count)
board.cache_hierarchy.iocache.avgBlocked::no_mshrs          nan                       # average number of cycles each access was blocked ((Cycle/Count))
board.cache_hierarchy.iocache.avgBlocked::no_targets          nan                       # average number of cycles each access was blocked ((Cycle/Count))
board.cache_hierarchy.iocache.replacements            0                       # number of replacements (Count)
board.cache_hierarchy.iocache.power_state.pwrStateResidencyTicks::UNDEFINED 6757802424000                       # Cumulative time (in ticks) in various power states (Tick)
board.cache_hierarchy.iocache.tags.tagsInUse            0                       # Average ticks per tags in use ((Tick/Count))
board.cache_hierarchy.iocache.tags.totalRefs            0                       # Total number of references to valid blocks. (Count)
board.cache_hierarchy.iocache.tags.sampledRefs            0                       # Sample count of references to valid blocks. (Count)
board.cache_hierarchy.iocache.tags.avgRefs          nan                       # Average number of references to valid blocks. ((Count/Count))
board.cache_hierarchy.iocache.tags.warmupTick            0                       # The tick when the warmup percentage was hit. (Tick)
board.cache_hierarchy.iocache.tags.tagAccesses            0                       # Number of tag accesses (Count)
board.cache_hierarchy.iocache.tags.dataAccesses            0                       # Number of data accesses (Count)
board.cache_hierarchy.iocache.tags.power_state.pwrStateResidencyTicks::UNDEFINED 6757802424000                       # Cumulative time (in ticks) in various power states (Tick)
board.cache_hierarchy.iptw_caches0.demandHits::processor.cores0.core.mmu.itb.walker           25                       # number of demand (read+write) hits (Count)
board.cache_hierarchy.iptw_caches0.demandHits::total           25                       # number of demand (read+write) hits (Count)
board.cache_hierarchy.iptw_caches0.overallHits::processor.cores0.core.mmu.itb.walker           25                       # number of overall hits (Count)
board.cache_hierarchy.iptw_caches0.overallHits::total           25                       # number of overall hits (Count)
board.cache_hierarchy.iptw_caches0.demandMisses::processor.cores0.core.mmu.itb.walker            8                       # number of demand (read+write) misses (Count)
board.cache_hierarchy.iptw_caches0.demandMisses::total            8                       # number of demand (read+write) misses (Count)
board.cache_hierarchy.iptw_caches0.overallMisses::processor.cores0.core.mmu.itb.walker            8                       # number of overall misses (Count)
board.cache_hierarchy.iptw_caches0.overallMisses::total            8                       # number of overall misses (Count)
board.cache_hierarchy.iptw_caches0.demandMissLatency::processor.cores0.core.mmu.itb.walker       480000                       # number of demand (read+write) miss ticks (Tick)
board.cache_hierarchy.iptw_caches0.demandMissLatency::total       480000                       # number of demand (read+write) miss ticks (Tick)
board.cache_hierarchy.iptw_caches0.overallMissLatency::processor.cores0.core.mmu.itb.walker       480000                       # number of overall miss ticks (Tick)
board.cache_hierarchy.iptw_caches0.overallMissLatency::total       480000                       # number of overall miss ticks (Tick)
board.cache_hierarchy.iptw_caches0.demandAccesses::processor.cores0.core.mmu.itb.walker           33                       # number of demand (read+write) accesses (Count)
board.cache_hierarchy.iptw_caches0.demandAccesses::total           33                       # number of demand (read+write) accesses (Count)
board.cache_hierarchy.iptw_caches0.overallAccesses::processor.cores0.core.mmu.itb.walker           33                       # number of overall (read+write) accesses (Count)
board.cache_hierarchy.iptw_caches0.overallAccesses::total           33                       # number of overall (read+write) accesses (Count)
board.cache_hierarchy.iptw_caches0.demandMissRate::processor.cores0.core.mmu.itb.walker     0.242424                       # miss rate for demand accesses (Ratio)
board.cache_hierarchy.iptw_caches0.demandMissRate::total     0.242424                       # miss rate for demand accesses (Ratio)
board.cache_hierarchy.iptw_caches0.overallMissRate::processor.cores0.core.mmu.itb.walker     0.242424                       # miss rate for overall accesses (Ratio)
board.cache_hierarchy.iptw_caches0.overallMissRate::total     0.242424                       # miss rate for overall accesses (Ratio)
board.cache_hierarchy.iptw_caches0.demandAvgMissLatency::processor.cores0.core.mmu.itb.walker        60000                       # average overall miss latency in ticks ((Tick/Count))
board.cache_hierarchy.iptw_caches0.demandAvgMissLatency::total        60000                       # average overall miss latency in ticks ((Tick/Count))
board.cache_hierarchy.iptw_caches0.overallAvgMissLatency::processor.cores0.core.mmu.itb.walker        60000                       # average overall miss latency ((Tick/Count))
board.cache_hierarchy.iptw_caches0.overallAvgMissLatency::total        60000                       # average overall miss latency ((Tick/Count))
board.cache_hierarchy.iptw_caches0.blockedCycles::no_mshrs            0                       # number of cycles access was blocked (Cycle)
board.cache_hierarchy.iptw_caches0.blockedCycles::no_targets            0                       # number of cycles access was blocked (Cycle)
board.cache_hierarchy.iptw_caches0.blockedCauses::no_mshrs            0                       # number of times access was blocked (Count)
board.cache_hierarchy.iptw_caches0.blockedCauses::no_targets            0                       # number of times access was blocked (Count)
board.cache_hierarchy.iptw_caches0.avgBlocked::no_mshrs          nan                       # average number of cycles each access was blocked ((Cycle/Count))
board.cache_hierarchy.iptw_caches0.avgBlocked::no_targets          nan                       # average number of cycles each access was blocked ((Cycle/Count))
board.cache_hierarchy.iptw_caches0.demandMshrMisses::processor.cores0.core.mmu.itb.walker            8                       # number of demand (read+write) MSHR misses (Count)
board.cache_hierarchy.iptw_caches0.demandMshrMisses::total            8                       # number of demand (read+write) MSHR misses (Count)
board.cache_hierarchy.iptw_caches0.overallMshrMisses::processor.cores0.core.mmu.itb.walker            8                       # number of overall MSHR misses (Count)
board.cache_hierarchy.iptw_caches0.overallMshrMisses::total            8                       # number of overall MSHR misses (Count)
board.cache_hierarchy.iptw_caches0.demandMshrMissLatency::processor.cores0.core.mmu.itb.walker       472000                       # number of demand (read+write) MSHR miss ticks (Tick)
board.cache_hierarchy.iptw_caches0.demandMshrMissLatency::total       472000                       # number of demand (read+write) MSHR miss ticks (Tick)
board.cache_hierarchy.iptw_caches0.overallMshrMissLatency::processor.cores0.core.mmu.itb.walker       472000                       # number of overall MSHR miss ticks (Tick)
board.cache_hierarchy.iptw_caches0.overallMshrMissLatency::total       472000                       # number of overall MSHR miss ticks (Tick)
board.cache_hierarchy.iptw_caches0.demandMshrMissRate::processor.cores0.core.mmu.itb.walker     0.242424                       # mshr miss ratio for demand accesses (Ratio)
board.cache_hierarchy.iptw_caches0.demandMshrMissRate::total     0.242424                       # mshr miss ratio for demand accesses (Ratio)
board.cache_hierarchy.iptw_caches0.overallMshrMissRate::processor.cores0.core.mmu.itb.walker     0.242424                       # mshr miss ratio for overall accesses (Ratio)
board.cache_hierarchy.iptw_caches0.overallMshrMissRate::total     0.242424                       # mshr miss ratio for overall accesses (Ratio)
board.cache_hierarchy.iptw_caches0.demandAvgMshrMissLatency::processor.cores0.core.mmu.itb.walker        59000                       # average overall mshr miss latency ((Tick/Count))
board.cache_hierarchy.iptw_caches0.demandAvgMshrMissLatency::total        59000                       # average overall mshr miss latency ((Tick/Count))
board.cache_hierarchy.iptw_caches0.overallAvgMshrMissLatency::processor.cores0.core.mmu.itb.walker        59000                       # average overall mshr miss latency ((Tick/Count))
board.cache_hierarchy.iptw_caches0.overallAvgMshrMissLatency::total        59000                       # average overall mshr miss latency ((Tick/Count))
board.cache_hierarchy.iptw_caches0.replacements            0                       # number of replacements (Count)
board.cache_hierarchy.iptw_caches0.ReadReq.hits::processor.cores0.core.mmu.itb.walker           25                       # number of ReadReq hits (Count)
board.cache_hierarchy.iptw_caches0.ReadReq.hits::total           25                       # number of ReadReq hits (Count)
board.cache_hierarchy.iptw_caches0.ReadReq.misses::processor.cores0.core.mmu.itb.walker            8                       # number of ReadReq misses (Count)
board.cache_hierarchy.iptw_caches0.ReadReq.misses::total            8                       # number of ReadReq misses (Count)
board.cache_hierarchy.iptw_caches0.ReadReq.missLatency::processor.cores0.core.mmu.itb.walker       480000                       # number of ReadReq miss ticks (Tick)
board.cache_hierarchy.iptw_caches0.ReadReq.missLatency::total       480000                       # number of ReadReq miss ticks (Tick)
board.cache_hierarchy.iptw_caches0.ReadReq.accesses::processor.cores0.core.mmu.itb.walker           33                       # number of ReadReq accesses(hits+misses) (Count)
board.cache_hierarchy.iptw_caches0.ReadReq.accesses::total           33                       # number of ReadReq accesses(hits+misses) (Count)
board.cache_hierarchy.iptw_caches0.ReadReq.missRate::processor.cores0.core.mmu.itb.walker     0.242424                       # miss rate for ReadReq accesses (Ratio)
board.cache_hierarchy.iptw_caches0.ReadReq.missRate::total     0.242424                       # miss rate for ReadReq accesses (Ratio)
board.cache_hierarchy.iptw_caches0.ReadReq.avgMissLatency::processor.cores0.core.mmu.itb.walker        60000                       # average ReadReq miss latency ((Tick/Count))
board.cache_hierarchy.iptw_caches0.ReadReq.avgMissLatency::total        60000                       # average ReadReq miss latency ((Tick/Count))
board.cache_hierarchy.iptw_caches0.ReadReq.mshrMisses::processor.cores0.core.mmu.itb.walker            8                       # number of ReadReq MSHR misses (Count)
board.cache_hierarchy.iptw_caches0.ReadReq.mshrMisses::total            8                       # number of ReadReq MSHR misses (Count)
board.cache_hierarchy.iptw_caches0.ReadReq.mshrMissLatency::processor.cores0.core.mmu.itb.walker       472000                       # number of ReadReq MSHR miss ticks (Tick)
board.cache_hierarchy.iptw_caches0.ReadReq.mshrMissLatency::total       472000                       # number of ReadReq MSHR miss ticks (Tick)
board.cache_hierarchy.iptw_caches0.ReadReq.mshrMissRate::processor.cores0.core.mmu.itb.walker     0.242424                       # mshr miss rate for ReadReq accesses (Ratio)
board.cache_hierarchy.iptw_caches0.ReadReq.mshrMissRate::total     0.242424                       # mshr miss rate for ReadReq accesses (Ratio)
board.cache_hierarchy.iptw_caches0.ReadReq.avgMshrMissLatency::processor.cores0.core.mmu.itb.walker        59000                       # average ReadReq mshr miss latency ((Tick/Count))
board.cache_hierarchy.iptw_caches0.ReadReq.avgMshrMissLatency::total        59000                       # average ReadReq mshr miss latency ((Tick/Count))
board.cache_hierarchy.iptw_caches0.power_state.pwrStateResidencyTicks::UNDEFINED 6757802424000                       # Cumulative time (in ticks) in various power states (Tick)
board.cache_hierarchy.iptw_caches0.tags.tagsInUse     9.924125                       # Average ticks per tags in use ((Tick/Count))
board.cache_hierarchy.iptw_caches0.tags.totalRefs            0                       # Total number of references to valid blocks. (Count)
board.cache_hierarchy.iptw_caches0.tags.sampledRefs            0                       # Sample count of references to valid blocks. (Count)
board.cache_hierarchy.iptw_caches0.tags.avgRefs          nan                       # Average number of references to valid blocks. ((Count/Count))
board.cache_hierarchy.iptw_caches0.tags.warmupTick            0                       # The tick when the warmup percentage was hit. (Tick)
board.cache_hierarchy.iptw_caches0.tags.occupancies::processor.cores0.core.mmu.itb.walker     9.924125                       # Average occupied blocks per tick, per requestor ((Count/Tick))
board.cache_hierarchy.iptw_caches0.tags.avgOccs::processor.cores0.core.mmu.itb.walker     0.077532                       # Average percentage of cache occupancy ((Ratio/Tick))
board.cache_hierarchy.iptw_caches0.tags.avgOccs::total     0.077532                       # Average percentage of cache occupancy ((Ratio/Tick))
board.cache_hierarchy.iptw_caches0.tags.occupanciesTaskId::1024           10                       # Occupied blocks per task id (Count)
board.cache_hierarchy.iptw_caches0.tags.ageTaskId_1024::4           10                       # Occupied blocks per task id, per block age (Count)
board.cache_hierarchy.iptw_caches0.tags.ratioOccsTaskId::1024     0.078125                       # Ratio of occupied blocks and all blocks, per task id (Ratio)
board.cache_hierarchy.iptw_caches0.tags.tagAccesses          140                       # Number of tag accesses (Count)
board.cache_hierarchy.iptw_caches0.tags.dataAccesses          140                       # Number of data accesses (Count)
board.cache_hierarchy.iptw_caches0.tags.power_state.pwrStateResidencyTicks::UNDEFINED 6757802424000                       # Cumulative time (in ticks) in various power states (Tick)
board.cache_hierarchy.iptw_caches1.demandHits::processor.cores1.core.mmu.itb.walker           25                       # number of demand (read+write) hits (Count)
board.cache_hierarchy.iptw_caches1.demandHits::total           25                       # number of demand (read+write) hits (Count)
board.cache_hierarchy.iptw_caches1.overallHits::processor.cores1.core.mmu.itb.walker           25                       # number of overall hits (Count)
board.cache_hierarchy.iptw_caches1.overallHits::total           25                       # number of overall hits (Count)
board.cache_hierarchy.iptw_caches1.demandMisses::processor.cores1.core.mmu.itb.walker            8                       # number of demand (read+write) misses (Count)
board.cache_hierarchy.iptw_caches1.demandMisses::total            8                       # number of demand (read+write) misses (Count)
board.cache_hierarchy.iptw_caches1.overallMisses::processor.cores1.core.mmu.itb.walker            8                       # number of overall misses (Count)
board.cache_hierarchy.iptw_caches1.overallMisses::total            8                       # number of overall misses (Count)
board.cache_hierarchy.iptw_caches1.demandMissLatency::processor.cores1.core.mmu.itb.walker       456000                       # number of demand (read+write) miss ticks (Tick)
board.cache_hierarchy.iptw_caches1.demandMissLatency::total       456000                       # number of demand (read+write) miss ticks (Tick)
board.cache_hierarchy.iptw_caches1.overallMissLatency::processor.cores1.core.mmu.itb.walker       456000                       # number of overall miss ticks (Tick)
board.cache_hierarchy.iptw_caches1.overallMissLatency::total       456000                       # number of overall miss ticks (Tick)
board.cache_hierarchy.iptw_caches1.demandAccesses::processor.cores1.core.mmu.itb.walker           33                       # number of demand (read+write) accesses (Count)
board.cache_hierarchy.iptw_caches1.demandAccesses::total           33                       # number of demand (read+write) accesses (Count)
board.cache_hierarchy.iptw_caches1.overallAccesses::processor.cores1.core.mmu.itb.walker           33                       # number of overall (read+write) accesses (Count)
board.cache_hierarchy.iptw_caches1.overallAccesses::total           33                       # number of overall (read+write) accesses (Count)
board.cache_hierarchy.iptw_caches1.demandMissRate::processor.cores1.core.mmu.itb.walker     0.242424                       # miss rate for demand accesses (Ratio)
board.cache_hierarchy.iptw_caches1.demandMissRate::total     0.242424                       # miss rate for demand accesses (Ratio)
board.cache_hierarchy.iptw_caches1.overallMissRate::processor.cores1.core.mmu.itb.walker     0.242424                       # miss rate for overall accesses (Ratio)
board.cache_hierarchy.iptw_caches1.overallMissRate::total     0.242424                       # miss rate for overall accesses (Ratio)
board.cache_hierarchy.iptw_caches1.demandAvgMissLatency::processor.cores1.core.mmu.itb.walker        57000                       # average overall miss latency in ticks ((Tick/Count))
board.cache_hierarchy.iptw_caches1.demandAvgMissLatency::total        57000                       # average overall miss latency in ticks ((Tick/Count))
board.cache_hierarchy.iptw_caches1.overallAvgMissLatency::processor.cores1.core.mmu.itb.walker        57000                       # average overall miss latency ((Tick/Count))
board.cache_hierarchy.iptw_caches1.overallAvgMissLatency::total        57000                       # average overall miss latency ((Tick/Count))
board.cache_hierarchy.iptw_caches1.blockedCycles::no_mshrs            0                       # number of cycles access was blocked (Cycle)
board.cache_hierarchy.iptw_caches1.blockedCycles::no_targets            0                       # number of cycles access was blocked (Cycle)
board.cache_hierarchy.iptw_caches1.blockedCauses::no_mshrs            0                       # number of times access was blocked (Count)
board.cache_hierarchy.iptw_caches1.blockedCauses::no_targets            0                       # number of times access was blocked (Count)
board.cache_hierarchy.iptw_caches1.avgBlocked::no_mshrs          nan                       # average number of cycles each access was blocked ((Cycle/Count))
board.cache_hierarchy.iptw_caches1.avgBlocked::no_targets          nan                       # average number of cycles each access was blocked ((Cycle/Count))
board.cache_hierarchy.iptw_caches1.writebacks::writebacks            3                       # number of writebacks (Count)
board.cache_hierarchy.iptw_caches1.writebacks::total            3                       # number of writebacks (Count)
board.cache_hierarchy.iptw_caches1.demandMshrMisses::processor.cores1.core.mmu.itb.walker            8                       # number of demand (read+write) MSHR misses (Count)
board.cache_hierarchy.iptw_caches1.demandMshrMisses::total            8                       # number of demand (read+write) MSHR misses (Count)
board.cache_hierarchy.iptw_caches1.overallMshrMisses::processor.cores1.core.mmu.itb.walker            8                       # number of overall MSHR misses (Count)
board.cache_hierarchy.iptw_caches1.overallMshrMisses::total            8                       # number of overall MSHR misses (Count)
board.cache_hierarchy.iptw_caches1.demandMshrMissLatency::processor.cores1.core.mmu.itb.walker       448000                       # number of demand (read+write) MSHR miss ticks (Tick)
board.cache_hierarchy.iptw_caches1.demandMshrMissLatency::total       448000                       # number of demand (read+write) MSHR miss ticks (Tick)
board.cache_hierarchy.iptw_caches1.overallMshrMissLatency::processor.cores1.core.mmu.itb.walker       448000                       # number of overall MSHR miss ticks (Tick)
board.cache_hierarchy.iptw_caches1.overallMshrMissLatency::total       448000                       # number of overall MSHR miss ticks (Tick)
board.cache_hierarchy.iptw_caches1.demandMshrMissRate::processor.cores1.core.mmu.itb.walker     0.242424                       # mshr miss ratio for demand accesses (Ratio)
board.cache_hierarchy.iptw_caches1.demandMshrMissRate::total     0.242424                       # mshr miss ratio for demand accesses (Ratio)
board.cache_hierarchy.iptw_caches1.overallMshrMissRate::processor.cores1.core.mmu.itb.walker     0.242424                       # mshr miss ratio for overall accesses (Ratio)
board.cache_hierarchy.iptw_caches1.overallMshrMissRate::total     0.242424                       # mshr miss ratio for overall accesses (Ratio)
board.cache_hierarchy.iptw_caches1.demandAvgMshrMissLatency::processor.cores1.core.mmu.itb.walker        56000                       # average overall mshr miss latency ((Tick/Count))
board.cache_hierarchy.iptw_caches1.demandAvgMshrMissLatency::total        56000                       # average overall mshr miss latency ((Tick/Count))
board.cache_hierarchy.iptw_caches1.overallAvgMshrMissLatency::processor.cores1.core.mmu.itb.walker        56000                       # average overall mshr miss latency ((Tick/Count))
board.cache_hierarchy.iptw_caches1.overallAvgMshrMissLatency::total        56000                       # average overall mshr miss latency ((Tick/Count))
board.cache_hierarchy.iptw_caches1.replacements            3                       # number of replacements (Count)
board.cache_hierarchy.iptw_caches1.ReadReq.hits::processor.cores1.core.mmu.itb.walker           25                       # number of ReadReq hits (Count)
board.cache_hierarchy.iptw_caches1.ReadReq.hits::total           25                       # number of ReadReq hits (Count)
board.cache_hierarchy.iptw_caches1.ReadReq.misses::processor.cores1.core.mmu.itb.walker            8                       # number of ReadReq misses (Count)
board.cache_hierarchy.iptw_caches1.ReadReq.misses::total            8                       # number of ReadReq misses (Count)
board.cache_hierarchy.iptw_caches1.ReadReq.missLatency::processor.cores1.core.mmu.itb.walker       456000                       # number of ReadReq miss ticks (Tick)
board.cache_hierarchy.iptw_caches1.ReadReq.missLatency::total       456000                       # number of ReadReq miss ticks (Tick)
board.cache_hierarchy.iptw_caches1.ReadReq.accesses::processor.cores1.core.mmu.itb.walker           33                       # number of ReadReq accesses(hits+misses) (Count)
board.cache_hierarchy.iptw_caches1.ReadReq.accesses::total           33                       # number of ReadReq accesses(hits+misses) (Count)
board.cache_hierarchy.iptw_caches1.ReadReq.missRate::processor.cores1.core.mmu.itb.walker     0.242424                       # miss rate for ReadReq accesses (Ratio)
board.cache_hierarchy.iptw_caches1.ReadReq.missRate::total     0.242424                       # miss rate for ReadReq accesses (Ratio)
board.cache_hierarchy.iptw_caches1.ReadReq.avgMissLatency::processor.cores1.core.mmu.itb.walker        57000                       # average ReadReq miss latency ((Tick/Count))
board.cache_hierarchy.iptw_caches1.ReadReq.avgMissLatency::total        57000                       # average ReadReq miss latency ((Tick/Count))
board.cache_hierarchy.iptw_caches1.ReadReq.mshrMisses::processor.cores1.core.mmu.itb.walker            8                       # number of ReadReq MSHR misses (Count)
board.cache_hierarchy.iptw_caches1.ReadReq.mshrMisses::total            8                       # number of ReadReq MSHR misses (Count)
board.cache_hierarchy.iptw_caches1.ReadReq.mshrMissLatency::processor.cores1.core.mmu.itb.walker       448000                       # number of ReadReq MSHR miss ticks (Tick)
board.cache_hierarchy.iptw_caches1.ReadReq.mshrMissLatency::total       448000                       # number of ReadReq MSHR miss ticks (Tick)
board.cache_hierarchy.iptw_caches1.ReadReq.mshrMissRate::processor.cores1.core.mmu.itb.walker     0.242424                       # mshr miss rate for ReadReq accesses (Ratio)
board.cache_hierarchy.iptw_caches1.ReadReq.mshrMissRate::total     0.242424                       # mshr miss rate for ReadReq accesses (Ratio)
board.cache_hierarchy.iptw_caches1.ReadReq.avgMshrMissLatency::processor.cores1.core.mmu.itb.walker        56000                       # average ReadReq mshr miss latency ((Tick/Count))
board.cache_hierarchy.iptw_caches1.ReadReq.avgMshrMissLatency::total        56000                       # average ReadReq mshr miss latency ((Tick/Count))
board.cache_hierarchy.iptw_caches1.power_state.pwrStateResidencyTicks::UNDEFINED 6757802424000                       # Cumulative time (in ticks) in various power states (Tick)
board.cache_hierarchy.iptw_caches1.tags.tagsInUse    43.943090                       # Average ticks per tags in use ((Tick/Count))
board.cache_hierarchy.iptw_caches1.tags.totalRefs           71                       # Total number of references to valid blocks. (Count)
board.cache_hierarchy.iptw_caches1.tags.sampledRefs            3                       # Sample count of references to valid blocks. (Count)
board.cache_hierarchy.iptw_caches1.tags.avgRefs    23.666667                       # Average number of references to valid blocks. ((Count/Count))
board.cache_hierarchy.iptw_caches1.tags.warmupTick            0                       # The tick when the warmup percentage was hit. (Tick)
board.cache_hierarchy.iptw_caches1.tags.occupancies::processor.cores1.core.mmu.itb.walker    43.943090                       # Average occupied blocks per tick, per requestor ((Count/Tick))
board.cache_hierarchy.iptw_caches1.tags.avgOccs::processor.cores1.core.mmu.itb.walker     0.343305                       # Average percentage of cache occupancy ((Ratio/Tick))
board.cache_hierarchy.iptw_caches1.tags.avgOccs::total     0.343305                       # Average percentage of cache occupancy ((Ratio/Tick))
board.cache_hierarchy.iptw_caches1.tags.occupanciesTaskId::1024           44                       # Occupied blocks per task id (Count)
board.cache_hierarchy.iptw_caches1.tags.ageTaskId_1024::4           44                       # Occupied blocks per task id, per block age (Count)
board.cache_hierarchy.iptw_caches1.tags.ratioOccsTaskId::1024     0.343750                       # Ratio of occupied blocks and all blocks, per task id (Ratio)
board.cache_hierarchy.iptw_caches1.tags.tagAccesses          140                       # Number of tag accesses (Count)
board.cache_hierarchy.iptw_caches1.tags.dataAccesses          140                       # Number of data accesses (Count)
board.cache_hierarchy.iptw_caches1.tags.power_state.pwrStateResidencyTicks::UNDEFINED 6757802424000                       # Cumulative time (in ticks) in various power states (Tick)
board.cache_hierarchy.iptw_caches2.demandHits::processor.cores2.core.mmu.itb.walker           17                       # number of demand (read+write) hits (Count)
board.cache_hierarchy.iptw_caches2.demandHits::total           17                       # number of demand (read+write) hits (Count)
board.cache_hierarchy.iptw_caches2.overallHits::processor.cores2.core.mmu.itb.walker           17                       # number of overall hits (Count)
board.cache_hierarchy.iptw_caches2.overallHits::total           17                       # number of overall hits (Count)
board.cache_hierarchy.iptw_caches2.demandMisses::processor.cores2.core.mmu.itb.walker            1                       # number of demand (read+write) misses (Count)
board.cache_hierarchy.iptw_caches2.demandMisses::total            1                       # number of demand (read+write) misses (Count)
board.cache_hierarchy.iptw_caches2.overallMisses::processor.cores2.core.mmu.itb.walker            1                       # number of overall misses (Count)
board.cache_hierarchy.iptw_caches2.overallMisses::total            1                       # number of overall misses (Count)
board.cache_hierarchy.iptw_caches2.demandMissLatency::processor.cores2.core.mmu.itb.walker         5000                       # number of demand (read+write) miss ticks (Tick)
board.cache_hierarchy.iptw_caches2.demandMissLatency::total         5000                       # number of demand (read+write) miss ticks (Tick)
board.cache_hierarchy.iptw_caches2.overallMissLatency::processor.cores2.core.mmu.itb.walker         5000                       # number of overall miss ticks (Tick)
board.cache_hierarchy.iptw_caches2.overallMissLatency::total         5000                       # number of overall miss ticks (Tick)
board.cache_hierarchy.iptw_caches2.demandAccesses::processor.cores2.core.mmu.itb.walker           18                       # number of demand (read+write) accesses (Count)
board.cache_hierarchy.iptw_caches2.demandAccesses::total           18                       # number of demand (read+write) accesses (Count)
board.cache_hierarchy.iptw_caches2.overallAccesses::processor.cores2.core.mmu.itb.walker           18                       # number of overall (read+write) accesses (Count)
board.cache_hierarchy.iptw_caches2.overallAccesses::total           18                       # number of overall (read+write) accesses (Count)
board.cache_hierarchy.iptw_caches2.demandMissRate::processor.cores2.core.mmu.itb.walker     0.055556                       # miss rate for demand accesses (Ratio)
board.cache_hierarchy.iptw_caches2.demandMissRate::total     0.055556                       # miss rate for demand accesses (Ratio)
board.cache_hierarchy.iptw_caches2.overallMissRate::processor.cores2.core.mmu.itb.walker     0.055556                       # miss rate for overall accesses (Ratio)
board.cache_hierarchy.iptw_caches2.overallMissRate::total     0.055556                       # miss rate for overall accesses (Ratio)
board.cache_hierarchy.iptw_caches2.demandAvgMissLatency::processor.cores2.core.mmu.itb.walker         5000                       # average overall miss latency in ticks ((Tick/Count))
board.cache_hierarchy.iptw_caches2.demandAvgMissLatency::total         5000                       # average overall miss latency in ticks ((Tick/Count))
board.cache_hierarchy.iptw_caches2.overallAvgMissLatency::processor.cores2.core.mmu.itb.walker         5000                       # average overall miss latency ((Tick/Count))
board.cache_hierarchy.iptw_caches2.overallAvgMissLatency::total         5000                       # average overall miss latency ((Tick/Count))
board.cache_hierarchy.iptw_caches2.blockedCycles::no_mshrs            0                       # number of cycles access was blocked (Cycle)
board.cache_hierarchy.iptw_caches2.blockedCycles::no_targets            0                       # number of cycles access was blocked (Cycle)
board.cache_hierarchy.iptw_caches2.blockedCauses::no_mshrs            0                       # number of times access was blocked (Count)
board.cache_hierarchy.iptw_caches2.blockedCauses::no_targets            0                       # number of times access was blocked (Count)
board.cache_hierarchy.iptw_caches2.avgBlocked::no_mshrs          nan                       # average number of cycles each access was blocked ((Cycle/Count))
board.cache_hierarchy.iptw_caches2.avgBlocked::no_targets          nan                       # average number of cycles each access was blocked ((Cycle/Count))
board.cache_hierarchy.iptw_caches2.demandMshrMisses::processor.cores2.core.mmu.itb.walker            1                       # number of demand (read+write) MSHR misses (Count)
board.cache_hierarchy.iptw_caches2.demandMshrMisses::total            1                       # number of demand (read+write) MSHR misses (Count)
board.cache_hierarchy.iptw_caches2.overallMshrMisses::processor.cores2.core.mmu.itb.walker            1                       # number of overall MSHR misses (Count)
board.cache_hierarchy.iptw_caches2.overallMshrMisses::total            1                       # number of overall MSHR misses (Count)
board.cache_hierarchy.iptw_caches2.demandMshrMissLatency::processor.cores2.core.mmu.itb.walker         4000                       # number of demand (read+write) MSHR miss ticks (Tick)
board.cache_hierarchy.iptw_caches2.demandMshrMissLatency::total         4000                       # number of demand (read+write) MSHR miss ticks (Tick)
board.cache_hierarchy.iptw_caches2.overallMshrMissLatency::processor.cores2.core.mmu.itb.walker         4000                       # number of overall MSHR miss ticks (Tick)
board.cache_hierarchy.iptw_caches2.overallMshrMissLatency::total         4000                       # number of overall MSHR miss ticks (Tick)
board.cache_hierarchy.iptw_caches2.demandMshrMissRate::processor.cores2.core.mmu.itb.walker     0.055556                       # mshr miss ratio for demand accesses (Ratio)
board.cache_hierarchy.iptw_caches2.demandMshrMissRate::total     0.055556                       # mshr miss ratio for demand accesses (Ratio)
board.cache_hierarchy.iptw_caches2.overallMshrMissRate::processor.cores2.core.mmu.itb.walker     0.055556                       # mshr miss ratio for overall accesses (Ratio)
board.cache_hierarchy.iptw_caches2.overallMshrMissRate::total     0.055556                       # mshr miss ratio for overall accesses (Ratio)
board.cache_hierarchy.iptw_caches2.demandAvgMshrMissLatency::processor.cores2.core.mmu.itb.walker         4000                       # average overall mshr miss latency ((Tick/Count))
board.cache_hierarchy.iptw_caches2.demandAvgMshrMissLatency::total         4000                       # average overall mshr miss latency ((Tick/Count))
board.cache_hierarchy.iptw_caches2.overallAvgMshrMissLatency::processor.cores2.core.mmu.itb.walker         4000                       # average overall mshr miss latency ((Tick/Count))
board.cache_hierarchy.iptw_caches2.overallAvgMshrMissLatency::total         4000                       # average overall mshr miss latency ((Tick/Count))
board.cache_hierarchy.iptw_caches2.replacements            0                       # number of replacements (Count)
board.cache_hierarchy.iptw_caches2.ReadReq.hits::processor.cores2.core.mmu.itb.walker           17                       # number of ReadReq hits (Count)
board.cache_hierarchy.iptw_caches2.ReadReq.hits::total           17                       # number of ReadReq hits (Count)
board.cache_hierarchy.iptw_caches2.ReadReq.misses::processor.cores2.core.mmu.itb.walker            1                       # number of ReadReq misses (Count)
board.cache_hierarchy.iptw_caches2.ReadReq.misses::total            1                       # number of ReadReq misses (Count)
board.cache_hierarchy.iptw_caches2.ReadReq.missLatency::processor.cores2.core.mmu.itb.walker         5000                       # number of ReadReq miss ticks (Tick)
board.cache_hierarchy.iptw_caches2.ReadReq.missLatency::total         5000                       # number of ReadReq miss ticks (Tick)
board.cache_hierarchy.iptw_caches2.ReadReq.accesses::processor.cores2.core.mmu.itb.walker           18                       # number of ReadReq accesses(hits+misses) (Count)
board.cache_hierarchy.iptw_caches2.ReadReq.accesses::total           18                       # number of ReadReq accesses(hits+misses) (Count)
board.cache_hierarchy.iptw_caches2.ReadReq.missRate::processor.cores2.core.mmu.itb.walker     0.055556                       # miss rate for ReadReq accesses (Ratio)
board.cache_hierarchy.iptw_caches2.ReadReq.missRate::total     0.055556                       # miss rate for ReadReq accesses (Ratio)
board.cache_hierarchy.iptw_caches2.ReadReq.avgMissLatency::processor.cores2.core.mmu.itb.walker         5000                       # average ReadReq miss latency ((Tick/Count))
board.cache_hierarchy.iptw_caches2.ReadReq.avgMissLatency::total         5000                       # average ReadReq miss latency ((Tick/Count))
board.cache_hierarchy.iptw_caches2.ReadReq.mshrMisses::processor.cores2.core.mmu.itb.walker            1                       # number of ReadReq MSHR misses (Count)
board.cache_hierarchy.iptw_caches2.ReadReq.mshrMisses::total            1                       # number of ReadReq MSHR misses (Count)
board.cache_hierarchy.iptw_caches2.ReadReq.mshrMissLatency::processor.cores2.core.mmu.itb.walker         4000                       # number of ReadReq MSHR miss ticks (Tick)
board.cache_hierarchy.iptw_caches2.ReadReq.mshrMissLatency::total         4000                       # number of ReadReq MSHR miss ticks (Tick)
board.cache_hierarchy.iptw_caches2.ReadReq.mshrMissRate::processor.cores2.core.mmu.itb.walker     0.055556                       # mshr miss rate for ReadReq accesses (Ratio)
board.cache_hierarchy.iptw_caches2.ReadReq.mshrMissRate::total     0.055556                       # mshr miss rate for ReadReq accesses (Ratio)
board.cache_hierarchy.iptw_caches2.ReadReq.avgMshrMissLatency::processor.cores2.core.mmu.itb.walker         4000                       # average ReadReq mshr miss latency ((Tick/Count))
board.cache_hierarchy.iptw_caches2.ReadReq.avgMshrMissLatency::total         4000                       # average ReadReq mshr miss latency ((Tick/Count))
board.cache_hierarchy.iptw_caches2.power_state.pwrStateResidencyTicks::UNDEFINED 6757802424000                       # Cumulative time (in ticks) in various power states (Tick)
board.cache_hierarchy.iptw_caches2.tags.tagsInUse    31.999915                       # Average ticks per tags in use ((Tick/Count))
board.cache_hierarchy.iptw_caches2.tags.totalRefs            2                       # Total number of references to valid blocks. (Count)
[...]
board.processor.cores2.core.commitStats0.committedInstType::IntDiv           87      0.00%     36.55% # Class of committed instruction. (Count)
board.processor.cores2.core.commitStats0.committedInstType::FloatAdd      1609048      8.40%     44.95% # Class of committed instruction. (Count)
board.processor.cores2.core.commitStats0.committedInstType::FloatCmp       350208      1.83%     46.78% # Class of committed instruction. (Count)
board.processor.cores2.core.commitStats0.committedInstType::FloatCvt      1751047      9.14%     55.93% # Class of committed instruction. (Count)
board.processor.cores2.core.commitStats0.committedInstType::FloatMult      1050970      5.49%     61.41% # Class of committed instruction. (Count)
board.processor.cores2.core.commitStats0.committedInstType::FloatMultAcc      1608704      8.40%     69.81% # Class of committed instruction. (Count)
board.processor.cores2.core.commitStats0.committedInstType::FloatDiv       875526      4.57%     74.39% # Class of committed instruction. (Count)
board.processor.cores2.core.commitStats0.committedInstType::FloatMisc            2      0.00%     74.39% # Class of committed instruction. (Count)
board.processor.cores2.core.commitStats0.committedInstType::FloatSqrt            0      0.00%     74.39% # Class of committed instruction. (Count)
board.processor.cores2.core.commitStats0.committedInstType::SimdAdd            0      0.00%     74.39% # Class of committed instruction. (Count)
board.processor.cores2.core.commitStats0.committedInstType::SimdAddAcc            0      0.00%     74.39% # Class of committed instruction. (Count)
board.processor.cores2.core.commitStats0.committedInstType::SimdAlu            0      0.00%     74.39% # Class of committed instruction. (Count)
board.processor.cores2.core.commitStats0.committedInstType::SimdCmp            0      0.00%     74.39% # Class of committed instruction. (Count)
board.processor.cores2.core.commitStats0.committedInstType::SimdCvt            0      0.00%     74.39% # Class of committed instruction. (Count)
board.processor.cores2.core.commitStats0.committedInstType::SimdMisc            0      0.00%     74.39% # Class of committed instruction. (Count)
board.processor.cores2.core.commitStats0.committedInstType::SimdMult            0      0.00%     74.39% # Class of committed instruction. (Count)
board.processor.cores2.core.commitStats0.committedInstType::SimdMultAcc            0      0.00%     74.39% # Class of committed instruction. (Count)
board.processor.cores2.core.commitStats0.committedInstType::SimdMatMultAcc            0      0.00%     74.39% # Class of committed instruction. (Count)
board.processor.cores2.core.commitStats0.committedInstType::SimdShift            0      0.00%     74.39% # Class of committed instruction. (Count)
board.processor.cores2.core.commitStats0.committedInstType::SimdShiftAcc            0      0.00%     74.39% # Class of committed instruction. (Count)
board.processor.cores2.core.commitStats0.committedInstType::SimdDiv            0      0.00%     74.39% # Class of committed instruction. (Count)
board.processor.cores2.core.commitStats0.committedInstType::SimdSqrt            0      0.00%     74.39% # Class of committed instruction. (Count)
board.processor.cores2.core.commitStats0.committedInstType::SimdFloatAdd            0      0.00%     74.39% # Class of committed instruction. (Count)
board.processor.cores2.core.commitStats0.committedInstType::SimdFloatAlu            0      0.00%     74.39% # Class of committed instruction. (Count)
board.processor.cores2.core.commitStats0.committedInstType::SimdFloatCmp            0      0.00%     74.39% # Class of committed instruction. (Count)
board.processor.cores2.core.commitStats0.committedInstType::SimdFloatCvt            0      0.00%     74.39% # Class of committed instruction. (Count)
board.processor.cores2.core.commitStats0.committedInstType::SimdFloatDiv            0      0.00%     74.39% # Class of committed instruction. (Count)
board.processor.cores2.core.commitStats0.committedInstType::SimdFloatMisc            0      0.00%     74.39% # Class of committed instruction. (Count)
board.processor.cores2.core.commitStats0.committedInstType::SimdFloatMult            0      0.00%     74.39% # Class of committed instruction. (Count)
board.processor.cores2.core.commitStats0.committedInstType::SimdFloatMultAcc            0      0.00%     74.39% # Class of committed instruction. (Count)
board.processor.cores2.core.commitStats0.committedInstType::SimdFloatMatMultAcc            0      0.00%     74.39% # Class of committed instruction. (Count)
board.processor.cores2.core.commitStats0.committedInstType::SimdFloatSqrt            0      0.00%     74.39% # Class of committed instruction. (Count)
board.processor.cores2.core.commitStats0.committedInstType::SimdReduceAdd            0      0.00%     74.39% # Class of committed instruction. (Count)
board.processor.cores2.core.commitStats0.committedInstType::SimdReduceAlu            0      0.00%     74.39% # Class of committed instruction. (Count)
board.processor.cores2.core.commitStats0.committedInstType::SimdReduceCmp            0      0.00%     74.39% # Class of committed instruction. (Count)
board.processor.cores2.core.commitStats0.committedInstType::SimdFloatReduceAdd            0      0.00%     74.39% # Class of committed instruction. (Count)
board.processor.cores2.core.commitStats0.committedInstType::SimdFloatReduceCmp            0      0.00%     74.39% # Class of committed instruction. (Count)
board.processor.cores2.core.commitStats0.committedInstType::SimdAes            0      0.00%     74.39% # Class of committed instruction. (Count)
board.processor.cores2.core.commitStats0.committedInstType::SimdAesMix            0      0.00%     74.39% # Class of committed instruction. (Count)
board.processor.cores2.core.commitStats0.committedInstType::SimdSha1Hash            0      0.00%     74.39% # Class of committed instruction. (Count)
board.processor.cores2.core.commitStats0.committedInstType::SimdSha1Hash2            0      0.00%     74.39% # Class of committed instruction. (Count)
board.processor.cores2.core.commitStats0.committedInstType::SimdSha256Hash            0      0.00%     74.39% # Class of committed instruction. (Count)
board.processor.cores2.core.commitStats0.committedInstType::SimdSha256Hash2            0      0.00%     74.39% # Class of committed instruction. (Count)
board.processor.cores2.core.commitStats0.committedInstType::SimdShaSigma2            0      0.00%     74.39% # Class of committed instruction. (Count)
board.processor.cores2.core.commitStats0.committedInstType::SimdShaSigma3            0      0.00%     74.39% # Class of committed instruction. (Count)
board.processor.cores2.core.commitStats0.committedInstType::SimdPredAlu            0      0.00%     74.39% # Class of committed instruction. (Count)
board.processor.cores2.core.commitStats0.committedInstType::Matrix            0      0.00%     74.39% # Class of committed instruction. (Count)
board.processor.cores2.core.commitStats0.committedInstType::MatrixMov            0      0.00%     74.39% # Class of committed instruction. (Count)
board.processor.cores2.core.commitStats0.committedInstType::MatrixOP            0      0.00%     74.39% # Class of committed instruction. (Count)
board.processor.cores2.core.commitStats0.committedInstType::MemRead       690107      3.60%     77.99% # Class of committed instruction. (Count)
board.processor.cores2.core.commitStats0.committedInstType::MemWrite       329762      1.72%     79.71% # Class of committed instruction. (Count)
board.processor.cores2.core.commitStats0.committedInstType::FloatMemRead      2834448     14.80%     94.51% # Class of committed instruction. (Count)
board.processor.cores2.core.commitStats0.committedInstType::FloatMemWrite      1051080      5.49%    100.00% # Class of committed instruction. (Count)
board.processor.cores2.core.commitStats0.committedInstType::IprAccess            0      0.00%    100.00% # Class of committed instruction. (Count)
board.processor.cores2.core.commitStats0.committedInstType::InstPrefetch            0      0.00%    100.00% # Class of committed instruction. (Count)
board.processor.cores2.core.commitStats0.committedInstType::VectorUnitStrideLoad            0      0.00%    100.00% # Class of committed instruction. (Count)
board.processor.cores2.core.commitStats0.committedInstType::VectorUnitStrideStore            0      0.00%    100.00% # Class of committed instruction. (Count)
board.processor.cores2.core.commitStats0.committedInstType::VectorUnitStrideMaskLoad            0      0.00%    100.00% # Class of committed instruction. (Count)
board.processor.cores2.core.commitStats0.committedInstType::VectorUnitStrideMaskStore            0      0.00%    100.00% # Class of committed instruction. (Count)
board.processor.cores2.core.commitStats0.committedInstType::VectorStridedLoad            0      0.00%    100.00% # Class of committed instruction. (Count)
board.processor.cores2.core.commitStats0.committedInstType::VectorStridedStore            0      0.00%    100.00% # Class of committed instruction. (Count)
board.processor.cores2.core.commitStats0.committedInstType::VectorIndexedLoad            0      0.00%    100.00% # Class of committed instruction. (Count)
board.processor.cores2.core.commitStats0.committedInstType::VectorIndexedStore            0      0.00%    100.00% # Class of committed instruction. (Count)
board.processor.cores2.core.commitStats0.committedInstType::VectorUnitStrideFaultOnlyFirstLoad            0      0.00%    100.00% # Class of committed instruction. (Count)
board.processor.cores2.core.commitStats0.committedInstType::VectorWholeRegisterLoad            0      0.00%    100.00% # Class of committed instruction. (Count)
board.processor.cores2.core.commitStats0.committedInstType::VectorWholeRegisterStore            0      0.00%    100.00% # Class of committed instruction. (Count)
board.processor.cores2.core.commitStats0.committedInstType::VectorIntegerArith            0      0.00%    100.00% # Class of committed instruction. (Count)
board.processor.cores2.core.commitStats0.committedInstType::VectorFloatArith            0      0.00%    100.00% # Class of committed instruction. (Count)
board.processor.cores2.core.commitStats0.committedInstType::VectorFloatConvert            0      0.00%    100.00% # Class of committed instruction. (Count)
board.processor.cores2.core.commitStats0.committedInstType::VectorIntegerReduce            0      0.00%    100.00% # Class of committed instruction. (Count)
board.processor.cores2.core.commitStats0.committedInstType::VectorFloatReduce            0      0.00%    100.00% # Class of committed instruction. (Count)
board.processor.cores2.core.commitStats0.committedInstType::VectorMisc            0      0.00%    100.00% # Class of committed instruction. (Count)
board.processor.cores2.core.commitStats0.committedInstType::VectorIntegerExtension            0      0.00%    100.00% # Class of committed instruction. (Count)
board.processor.cores2.core.commitStats0.committedInstType::VectorConfig            0      0.00%    100.00% # Class of committed instruction. (Count)
board.processor.cores2.core.commitStats0.committedInstType::total     19150745                       # Class of committed instruction. (Count)
board.processor.cores2.core.commitStats0.committedControl::IsControl      1009322                       # Class of control type instructions committed (Count)
board.processor.cores2.core.commitStats0.committedControl::IsDirectControl       994611                       # Class of control type instructions committed (Count)
board.processor.cores2.core.commitStats0.committedControl::IsIndirectControl        14238                       # Class of control type instructions committed (Count)
board.processor.cores2.core.commitStats0.committedControl::IsCondControl       835951                       # Class of control type instructions committed (Count)
board.processor.cores2.core.commitStats0.committedControl::IsUncondControl       172898                       # Class of control type instructions committed (Count)
board.processor.cores2.core.commitStats0.committedControl::IsCall        10183                       # Class of control type instructions committed (Count)
board.processor.cores2.core.commitStats0.committedControl::IsReturn        11518                       # Class of control type instructions committed (Count)
board.processor.cores2.core.exec_context.thread_0.numMatAluAccesses            0                       # Number of matrix alu accesses (Count)
board.processor.cores2.core.exec_context.thread_0.numCallsReturns        21701                       # Number of times a function call or return occured (Count)
board.processor.cores2.core.exec_context.thread_0.numMatInsts            0                       # Number of matrix instructions (Count)
board.processor.cores2.core.exec_context.thread_0.numIdleCycles            0                       # Number of idle cycles (Cycle)
board.processor.cores2.core.exec_context.thread_0.numBusyCycles     37183722                       # Number of busy cycles (Cycle)
board.processor.cores2.core.exec_context.thread_0.notIdleFraction            1                       # Percentage of non-idle cycles (Ratio)
board.processor.cores2.core.exec_context.thread_0.idleFraction            0                       # Percentage of idle cycles (Ratio)
board.processor.cores2.core.executeStats0.numInsts            0                       # Number of executed instructions (Count)
board.processor.cores2.core.executeStats0.numNop            0                       # Number of nop insts executed (Count)
board.processor.cores2.core.executeStats0.numBranches            0                       # Number of branches executed (Count)
board.processor.cores2.core.executeStats0.numLoadInsts            0                       # Number of load instructions executed (Count)
board.processor.cores2.core.executeStats0.numStoreInsts      4905397                       # Number of stores executed (Count)
board.processor.cores2.core.executeStats0.instRate            0                       # Inst execution rate ((Count/Cycle))
board.processor.cores2.core.executeStats0.numFpAluAccesses     11131033                       # Number of float alu accesses (Count)
board.processor.cores2.core.executeStats0.numFpRegReads     15399742                       # Number of times the floating registers were read (Count)
board.processor.cores2.core.executeStats0.numFpRegWrites      9729745                       # Number of times the floating registers were written (Count)
board.processor.cores2.core.executeStats0.numIntAluAccesses     12099797                       # Number of integer alu accesses (Count)
board.processor.cores2.core.executeStats0.numIntRegReads     16008150                       # Number of times the integer registers were read (Count)
board.processor.cores2.core.executeStats0.numIntRegWrites      7030300                       # Number of times the integer registers were written (Count)
board.processor.cores2.core.executeStats0.numMemRefs      4905397                       # Number of memory refs (Count)
board.processor.cores2.core.executeStats0.numMiscRegReads     25290224                       # Number of times the Misc registers were read (Count)
board.processor.cores2.core.executeStats0.numMiscRegWrites     14497184                       # Number of times the Misc registers were written (Count)
board.processor.cores2.core.executeStats0.numVecAluAccesses            0                       # Number of vector alu accesses (Count)
board.processor.cores2.core.executeStats0.numDiscardedOps            0                       # Number of ops (including micro ops) which were discarded before commit (Count)
board.processor.cores2.core.fetchStats0.numInsts     19148854                       # Number of instructions fetched (thread level) (Count)
board.processor.cores2.core.fetchStats0.numOps     19150745                       # Number of ops (including micro ops) fetched (thread level) (Count)
board.processor.cores2.core.fetchStats0.fetchRate     0.514979                       # Number of inst fetches per cycle ((Count/Cycle))
board.processor.cores2.core.fetchStats0.numBranches      1009322                       # Number of branches fetched (Count)
board.processor.cores2.core.fetchStats0.branchRate     0.027144                       # Number of branch fetches per cycle (Ratio)
board.processor.cores2.core.fetchStats0.numFetchSuspends            0                       # Number of times Execute suspended instruction fetching (Count)
board.processor.cores2.core.mmu.dtb.readHits      3520651                       # read hits (Count)
board.processor.cores2.core.mmu.dtb.readMisses         1420                       # read misses (Count)
board.processor.cores2.core.mmu.dtb.readAccesses      3522071                       # read accesses (Count)
board.processor.cores2.core.mmu.dtb.writeHits      1383292                       # write hits (Count)
board.processor.cores2.core.mmu.dtb.writeMisses         1314                       # write misses (Count)
board.processor.cores2.core.mmu.dtb.writeAccesses      1384606                       # write accesses (Count)
board.processor.cores2.core.mmu.dtb.hits      4903943                       # Total TLB (read and write) hits (Count)
board.processor.cores2.core.mmu.dtb.misses         2734                       # Total TLB (read and write) misses (Count)
board.processor.cores2.core.mmu.dtb.accesses      4906677                       # Total TLB (read and write) accesses (Count)
board.processor.cores2.core.mmu.dtb.walker.power_state.pwrStateResidencyTicks::UNDEFINED 6757802424000                       # Cumulative time (in ticks) in various power states (Tick)
board.processor.cores2.core.mmu.itb.readHits     28868750                       # read hits (Count)
board.processor.cores2.core.mmu.itb.readMisses            6                       # read misses (Count)
board.processor.cores2.core.mmu.itb.readAccesses     28868756                       # read accesses (Count)
board.processor.cores2.core.mmu.itb.writeHits            0                       # write hits (Count)
board.processor.cores2.core.mmu.itb.writeMisses            0                       # write misses (Count)
board.processor.cores2.core.mmu.itb.writeAccesses            0                       # write accesses (Count)
board.processor.cores2.core.mmu.itb.hits     28868750                       # Total TLB (read and write) hits (Count)
board.processor.cores2.core.mmu.itb.misses            6                       # Total TLB (read and write) misses (Count)
board.processor.cores2.core.mmu.itb.accesses     28868756                       # Total TLB (read and write) accesses (Count)
board.processor.cores2.core.mmu.itb.walker.power_state.pwrStateResidencyTicks::UNDEFINED 6757802424000                       # Cumulative time (in ticks) in various power states (Tick)
board.processor.cores2.core.power_state.pwrStateResidencyTicks::ON  86486808000                       # Cumulative time (in ticks) in various power states (Tick)
board.processor.cores2.core.thread_0.numInsts            0                       # Number of Instructions committed (Count)
board.processor.cores2.core.thread_0.numOps            0                       # Number of Ops committed (Count)
board.processor.cores2.core.thread_0.numMemRefs            0                       # Number of Memory References (Count)
board.rng.power_state.pwrStateResidencyTicks::UNDEFINED 6757802424000                       # Cumulative time (in ticks) in various power states (Tick)
board.workload.inst.arm                             0                       # number of arm instructions executed (Count)
board.workload.inst.quiesce                         3                       # number of quiesce instructions executed (Count)

---------- End Simulation Statistics   ----------
