
---------- Begin Simulation Statistics ----------
simSeconds                                   0.028171                       # Number of seconds simulated (Second)
simTicks                                  28170761000                       # Number of ticks simulated (Tick)
finalTick                                3500202690000                       # Number of ticks from beginning of simulation (restored from checkpoints and never reset) (Tick)
simFreq                                  1000000000000                       # The number of ticks per simulated second ((Tick/Second))
hostSeconds                                     82.00                       # Real time elapsed on the host (Second)
hostTickRate                                343527592                       # The number of ticks simulated per host second (ticks/s) ((Tick/Second))
hostMemory                                    8633744                       # Number of bytes of host memory used (Byte)
simInsts                                    875978638                       # Number of instructions simulated (Count)
simOps                                      876783397                       # Number of ops (including micro ops) simulated (Count)
hostInstRate                                 10682088                       # Simulator instruction rate (inst/s) ((Count/Second))
hostOpRate                                   10691900                       # Simulator op (including micro ops) rate (op/s) ((Count/Second))
board.bridge.power_state.pwrStateResidencyTicks::UNDEFINED 3500202690000                       # Cumulative time (in ticks) in various power states (Tick)
board.cache_hierarchy.dptw_caches0.demandHits::processor.cores0.core.mmu.dtb.walker         4485                       # number of demand (read+write) hits (Count)
board.cache_hierarchy.dptw_caches0.demandHits::total         4485                       # number of demand (read+write) hits (Count)
board.cache_hierarchy.dptw_caches0.overallHits::processor.cores0.core.mmu.dtb.walker         4485                       # number of overall hits (Count)
board.cache_hierarchy.dptw_caches0.overallHits::total         4485                       # number of overall hits (Count)
board.cache_hierarchy.dptw_caches0.demandMisses::processor.cores0.core.mmu.dtb.walker         1350                       # number of demand (read+write) misses (Count)
board.cache_hierarchy.dptw_caches0.demandMisses::total         1350                       # number of demand (read+write) misses (Count)
board.cache_hierarchy.dptw_caches0.overallMisses::processor.cores0.core.mmu.dtb.walker         1350                       # number of overall misses (Count)
board.cache_hierarchy.dptw_caches0.overallMisses::total         1350                       # number of overall misses (Count)
board.cache_hierarchy.dptw_caches0.demandMissLatency::processor.cores0.core.mmu.dtb.walker     25163000                       # number of demand (read+write) miss ticks (Tick)
board.cache_hierarchy.dptw_caches0.demandMissLatency::total     25163000                       # number of demand (read+write) miss ticks (Tick)
board.cache_hierarchy.dptw_caches0.overallMissLatency::processor.cores0.core.mmu.dtb.walker     25163000                       # number of overall miss ticks (Tick)
board.cache_hierarchy.dptw_caches0.overallMissLatency::total     25163000                       # number of overall miss ticks (Tick)
board.cache_hierarchy.dptw_caches0.demandAccesses::processor.cores0.core.mmu.dtb.walker         5835                       # number of demand (read+write) accesses (Count)
board.cache_hierarchy.dptw_caches0.demandAccesses::total         5835                       # number of demand (read+write) accesses (Count)
board.cache_hierarchy.dptw_caches0.overallAccesses::processor.cores0.core.mmu.dtb.walker         5835                       # number of overall (read+write) accesses (Count)
board.cache_hierarchy.dptw_caches0.overallAccesses::total         5835                       # number of overall (read+write) accesses (Count)
board.cache_hierarchy.dptw_caches0.demandMissRate::processor.cores0.core.mmu.dtb.walker     0.231362                       # miss rate for demand accesses (Ratio)
board.cache_hierarchy.dptw_caches0.demandMissRate::total     0.231362                       # miss rate for demand accesses (Ratio)
board.cache_hierarchy.dptw_caches0.overallMissRate::processor.cores0.core.mmu.dtb.walker     0.231362                       # miss rate for overall accesses (Ratio)
board.cache_hierarchy.dptw_caches0.overallMissRate::total     0.231362                       # miss rate for overall accesses (Ratio)
board.cache_hierarchy.dptw_caches0.demandAvgMissLatency::processor.cores0.core.mmu.dtb.walker 18639.259259                       # average overall miss latency in ticks ((Tick/Count))
board.cache_hierarchy.dptw_caches0.demandAvgMissLatency::total 18639.259259                       # average overall miss latency in ticks ((Tick/Count))
board.cache_hierarchy.dptw_caches0.overallAvgMissLatency::processor.cores0.core.mmu.dtb.walker 18639.259259                       # average overall miss latency ((Tick/Count))
board.cache_hierarchy.dptw_caches0.overallAvgMissLatency::total 18639.259259                       # average overall miss latency ((Tick/Count))
board.cache_hierarchy.dptw_caches0.blockedCycles::no_mshrs            0                       # number of cycles access was blocked (Cycle)
board.cache_hierarchy.dptw_caches0.blockedCycles::no_targets            0                       # number of cycles access was blocked (Cycle)
board.cache_hierarchy.dptw_caches0.blockedCauses::no_mshrs            0                       # number of times access was blocked (Count)
board.cache_hierarchy.dptw_caches0.blockedCauses::no_targets            0                       # number of times access was blocked (Count)
board.cache_hierarchy.dptw_caches0.avgBlocked::no_mshrs          nan                       # average number of cycles each access was blocked ((Cycle/Count))
board.cache_hierarchy.dptw_caches0.avgBlocked::no_targets          nan                       # average number of cycles each access was blocked ((Cycle/Count))
board.cache_hierarchy.dptw_caches0.writebacks::writebacks          985                       # number of writebacks (Count)
board.cache_hierarchy.dptw_caches0.writebacks::total          985                       # number of writebacks (Count)
board.cache_hierarchy.dptw_caches0.demandMshrMisses::processor.cores0.core.mmu.dtb.walker         1350                       # number of demand (read+write) MSHR misses (Count)
board.cache_hierarchy.dptw_caches0.demandMshrMisses::total         1350                       # number of demand (read+write) MSHR misses (Count)
board.cache_hierarchy.dptw_caches0.overallMshrMisses::processor.cores0.core.mmu.dtb.walker         1350                       # number of overall MSHR misses (Count)
board.cache_hierarchy.dptw_caches0.overallMshrMisses::total         1350                       # number of overall MSHR misses (Count)
board.cache_hierarchy.dptw_caches0.demandMshrMissLatency::processor.cores0.core.mmu.dtb.walker     23813000                       # number of demand (read+write) MSHR miss ticks (Tick)
board.cache_hierarchy.dptw_caches0.demandMshrMissLatency::total     23813000                       # number of demand (read+write) MSHR miss ticks (Tick)
board.cache_hierarchy.dptw_caches0.overallMshrMissLatency::processor.cores0.core.mmu.dtb.walker     23813000                       # number of overall MSHR miss ticks (Tick)
board.cache_hierarchy.dptw_caches0.overallMshrMissLatency::total     23813000                       # number of overall MSHR miss ticks (Tick)
board.cache_hierarchy.dptw_caches0.demandMshrMissRate::processor.cores0.core.mmu.dtb.walker     0.231362                       # mshr miss ratio for demand accesses (Ratio)
board.cache_hierarchy.dptw_caches0.demandMshrMissRate::total     0.231362                       # mshr miss ratio for demand accesses (Ratio)
board.cache_hierarchy.dptw_caches0.overallMshrMissRate::processor.cores0.core.mmu.dtb.walker     0.231362                       # mshr miss ratio for overall accesses (Ratio)
board.cache_hierarchy.dptw_caches0.overallMshrMissRate::total     0.231362                       # mshr miss ratio for overall accesses (Ratio)
board.cache_hierarchy.dptw_caches0.demandAvgMshrMissLatency::processor.cores0.core.mmu.dtb.walker 17639.259259                       # average overall mshr miss latency ((Tick/Count))
board.cache_hierarchy.dptw_caches0.demandAvgMshrMissLatency::total 17639.259259                       # average overall mshr miss latency ((Tick/Count))
board.cache_hierarchy.dptw_caches0.overallAvgMshrMissLatency::processor.cores0.core.mmu.dtb.walker 17639.259259                       # average overall mshr miss latency ((Tick/Count))
board.cache_hierarchy.dptw_caches0.overallAvgMshrMissLatency::total 17639.259259                       # average overall mshr miss latency ((Tick/Count))
board.cache_hierarchy.dptw_caches0.replacements          985                       # number of replacements (Count)
board.cache_hierarchy.dptw_caches0.ReadReq.hits::processor.cores0.core.mmu.dtb.walker         4485                       # number of ReadReq hits (Count)
board.cache_hierarchy.dptw_caches0.ReadReq.hits::total         4485                       # number of ReadReq hits (Count)
board.cache_hierarchy.dptw_caches0.ReadReq.misses::processor.cores0.core.mmu.dtb.walker         1350                       # number of ReadReq misses (Count)
board.cache_hierarchy.dptw_caches0.ReadReq.misses::total         1350                       # number of ReadReq misses (Count)
board.cache_hierarchy.dptw_caches0.ReadReq.missLatency::processor.cores0.core.mmu.dtb.walker     25163000                       # number of ReadReq miss ticks (Tick)
board.cache_hierarchy.dptw_caches0.ReadReq.missLatency::total     25163000                       # number of ReadReq miss ticks (Tick)
board.cache_hierarchy.dptw_caches0.ReadReq.accesses::processor.cores0.core.mmu.dtb.walker         5835                       # number of ReadReq accesses(hits+misses) (Count)
board.cache_hierarchy.dptw_caches0.ReadReq.accesses::total         5835                       # number of ReadReq accesses(hits+misses) (Count)
board.cache_hierarchy.dptw_caches0.ReadReq.missRate::processor.cores0.core.mmu.dtb.walker     0.231362                       # miss rate for ReadReq accesses (Ratio)
board.cache_hierarchy.dptw_caches0.ReadReq.missRate::total     0.231362                       # miss rate for ReadReq accesses (Ratio)
board.cache_hierarchy.dptw_caches0.ReadReq.avgMissLatency::processor.cores0.core.mmu.dtb.walker 18639.259259                       # average ReadReq miss latency ((Tick/Count))
board.cache_hierarchy.dptw_caches0.ReadReq.avgMissLatency::total 18639.259259                       # average ReadReq miss latency ((Tick/Count))
board.cache_hierarchy.dptw_caches0.ReadReq.mshrMisses::processor.cores0.core.mmu.dtb.walker         1350                       # number of ReadReq MSHR misses (Count)
board.cache_hierarchy.dptw_caches0.ReadReq.mshrMisses::total         1350                       # number of ReadReq MSHR misses (Count)
board.cache_hierarchy.dptw_caches0.ReadReq.mshrMissLatency::processor.cores0.core.mmu.dtb.walker     23813000                       # number of ReadReq MSHR miss ticks (Tick)
board.cache_hierarchy.dptw_caches0.ReadReq.mshrMissLatency::total     23813000                       # number of ReadReq MSHR miss ticks (Tick)
board.cache_hierarchy.dptw_caches0.ReadReq.mshrMissRate::processor.cores0.core.mmu.dtb.walker     0.231362                       # mshr miss rate for ReadReq accesses (Ratio)
board.cache_hierarchy.dptw_caches0.ReadReq.mshrMissRate::total     0.231362                       # mshr miss rate for ReadReq accesses (Ratio)
board.cache_hierarchy.dptw_caches0.ReadReq.avgMshrMissLatency::processor.cores0.core.mmu.dtb.walker 17639.259259                       # average ReadReq mshr miss latency ((Tick/Count))
board.cache_hierarchy.dptw_caches0.ReadReq.avgMshrMissLatency::total 17639.259259                       # average ReadReq mshr miss latency ((Tick/Count))
board.cache_hierarchy.dptw_caches0.power_state.pwrStateResidencyTicks::UNDEFINED 3500202690000                       # Cumulative time (in ticks) in various power states (Tick)
board.cache_hierarchy.dptw_caches0.tags.tagsInUse    90.909926                       # Average ticks per tags in use ((Tick/Count))
board.cache_hierarchy.dptw_caches0.tags.totalRefs         2489                       # Total number of references to valid blocks. (Count)
board.cache_hierarchy.dptw_caches0.tags.sampledRefs         1313                       # Sample count of references to valid blocks. (Count)
board.cache_hierarchy.dptw_caches0.tags.avgRefs     1.895659                       # Average number of references to valid blocks. ((Count/Count))
board.cache_hierarchy.dptw_caches0.tags.warmupTick            0                       # The tick when the warmup percentage was hit. (Tick)
board.cache_hierarchy.dptw_caches0.tags.occupancies::processor.cores0.core.mmu.dtb.walker    90.909926                       # Average occupied blocks per tick, per requestor ((Count/Tick))
board.cache_hierarchy.dptw_caches0.tags.avgOccs::processor.cores0.core.mmu.dtb.walker     0.710234                       # Average percentage of cache occupancy ((Ratio/Tick))
board.cache_hierarchy.dptw_caches0.tags.avgOccs::total     0.710234                       # Average percentage of cache occupancy ((Ratio/Tick))
board.cache_hierarchy.dptw_caches0.tags.occupanciesTaskId::1024           96                       # Occupied blocks per task id (Count)
board.cache_hierarchy.dptw_caches0.tags.ageTaskId_1024::0            2                       # Occupied blocks per task id, per block age (Count)
board.cache_hierarchy.dptw_caches0.tags.ageTaskId_1024::2            6                       # Occupied blocks per task id, per block age (Count)
board.cache_hierarchy.dptw_caches0.tags.ageTaskId_1024::3           24                       # Occupied blocks per task id, per block age (Count)
board.cache_hierarchy.dptw_caches0.tags.ageTaskId_1024::4           64                       # Occupied blocks per task id, per block age (Count)
board.cache_hierarchy.dptw_caches0.tags.ratioOccsTaskId::1024     0.750000                       # Ratio of occupied blocks and all blocks, per task id (Ratio)
board.cache_hierarchy.dptw_caches0.tags.tagAccesses        24690                       # Number of tag accesses (Count)
board.cache_hierarchy.dptw_caches0.tags.dataAccesses        24690                       # Number of data accesses (Count)
board.cache_hierarchy.dptw_caches0.tags.power_state.pwrStateResidencyTicks::UNDEFINED 3500202690000                       # Cumulative time (in ticks) in various power states (Tick)
board.cache_hierarchy.dptw_caches1.demandHits::processor.cores1.core.mmu.dtb.walker         4921                       # number of demand (read+write) hits (Count)
board.cache_hierarchy.dptw_caches1.demandHits::total         4921                       # number of demand (read+write) hits (Count)
board.cache_hierarchy.dptw_caches1.overallHits::processor.cores1.core.mmu.dtb.walker         4921                       # number of overall hits (Count)
board.cache_hierarchy.dptw_caches1.overallHits::total         4921                       # number of overall hits (Count)
board.cache_hierarchy.dptw_caches1.demandMisses::processor.cores1.core.mmu.dtb.walker         1358                       # number of demand (read+write) misses (Count)
board.cache_hierarchy.dptw_caches1.demandMisses::total         1358                       # number of demand (read+write) misses (Count)
board.cache_hierarchy.dptw_caches1.overallMisses::processor.cores1.core.mmu.dtb.walker         1358                       # number of overall misses (Count)
board.cache_hierarchy.dptw_caches1.overallMisses::total         1358                       # number of overall misses (Count)
board.cache_hierarchy.dptw_caches1.demandMissLatency::processor.cores1.core.mmu.dtb.walker     25418000                       # number of demand (read+write) miss ticks (Tick)
board.cache_hierarchy.dptw_caches1.demandMissLatency::total     25418000                       # number of demand (read+write) miss ticks (Tick)
board.cache_hierarchy.dptw_caches1.overallMissLatency::processor.cores1.core.mmu.dtb.walker     25418000                       # number of overall miss ticks (Tick)
board.cache_hierarchy.dptw_caches1.overallMissLatency::total     25418000                       # number of overall miss ticks (Tick)
board.cache_hierarchy.dptw_caches1.demandAccesses::processor.cores1.core.mmu.dtb.walker         6279                       # number of demand (read+write) accesses (Count)
board.cache_hierarchy.dptw_caches1.demandAccesses::total         6279                       # number of demand (read+write) accesses (Count)
board.cache_hierarchy.dptw_caches1.overallAccesses::processor.cores1.core.mmu.dtb.walker         6279                       # number of overall (read+write) accesses (Count)
board.cache_hierarchy.dptw_caches1.overallAccesses::total         6279                       # number of overall (read+write) accesses (Count)
board.cache_hierarchy.dptw_caches1.demandMissRate::processor.cores1.core.mmu.dtb.walker     0.216276                       # miss rate for demand accesses (Ratio)
board.cache_hierarchy.dptw_caches1.demandMissRate::total     0.216276                       # miss rate for demand accesses (Ratio)
board.cache_hierarchy.dptw_caches1.overallMissRate::processor.cores1.core.mmu.dtb.walker     0.216276                       # miss rate for overall accesses (Ratio)
board.cache_hierarchy.dptw_caches1.overallMissRate::total     0.216276                       # miss rate for overall accesses (Ratio)
board.cache_hierarchy.dptw_caches1.demandAvgMissLatency::processor.cores1.core.mmu.dtb.walker 18717.231222                       # average overall miss latency in ticks ((Tick/Count))
board.cache_hierarchy.dptw_caches1.demandAvgMissLatency::total 18717.231222                       # average overall miss latency in ticks ((Tick/Count))
board.cache_hierarchy.dptw_caches1.overallAvgMissLatency::processor.cores1.core.mmu.dtb.walker 18717.231222                       # average overall miss latency ((Tick/Count))
board.cache_hierarchy.dptw_caches1.overallAvgMissLatency::total 18717.231222                       # average overall miss latency ((Tick/Count))
board.cache_hierarchy.dptw_caches1.blockedCycles::no_mshrs            0                       # number of cycles access was blocked (Cycle)
board.cache_hierarchy.dptw_caches1.blockedCycles::no_targets            0                       # number of cycles access was blocked (Cycle)
board.cache_hierarchy.dptw_caches1.blockedCauses::no_mshrs            0                       # number of times access was blocked (Count)
board.cache_hierarchy.dptw_caches1.blockedCauses::no_targets            0                       # number of times access was blocked (Count)
board.cache_hierarchy.dptw_caches1.avgBlocked::no_mshrs          nan                       # average number of cycles each access was blocked ((Cycle/Count))
board.cache_hierarchy.dptw_caches1.avgBlocked::no_targets          nan                       # average number of cycles each access was blocked ((Cycle/Count))
board.cache_hierarchy.dptw_caches1.writebacks::writebacks         1031                       # number of writebacks (Count)
board.cache_hierarchy.dptw_caches1.writebacks::total         1031                       # number of writebacks (Count)
board.cache_hierarchy.dptw_caches1.demandMshrMisses::processor.cores1.core.mmu.dtb.walker         1358                       # number of demand (read+write) MSHR misses (Count)
board.cache_hierarchy.dptw_caches1.demandMshrMisses::total         1358                       # number of demand (read+write) MSHR misses (Count)
board.cache_hierarchy.dptw_caches1.overallMshrMisses::processor.cores1.core.mmu.dtb.walker         1358                       # number of overall MSHR misses (Count)
board.cache_hierarchy.dptw_caches1.overallMshrMisses::total         1358                       # number of overall MSHR misses (Count)
board.cache_hierarchy.dptw_caches1.demandMshrMissLatency::processor.cores1.core.mmu.dtb.walker     24060000                       # number of demand (read+write) MSHR miss ticks (Tick)
board.cache_hierarchy.dptw_caches1.demandMshrMissLatency::total     24060000                       # number of demand (read+write) MSHR miss ticks (Tick)
board.cache_hierarchy.dptw_caches1.overallMshrMissLatency::processor.cores1.core.mmu.dtb.walker     24060000                       # number of overall MSHR miss ticks (Tick)
board.cache_hierarchy.dptw_caches1.overallMshrMissLatency::total     24060000                       # number of overall MSHR miss ticks (Tick)
board.cache_hierarchy.dptw_caches1.demandMshrMissRate::processor.cores1.core.mmu.dtb.walker     0.216276                       # mshr miss ratio for demand accesses (Ratio)
board.cache_hierarchy.dptw_caches1.demandMshrMissRate::total     0.216276                       # mshr miss ratio for demand accesses (Ratio)
board.cache_hierarchy.dptw_caches1.overallMshrMissRate::processor.cores1.core.mmu.dtb.walker     0.216276                       # mshr miss ratio for overall accesses (Ratio)
board.cache_hierarchy.dptw_caches1.overallMshrMissRate::total     0.216276                       # mshr miss ratio for overall accesses (Ratio)
board.cache_hierarchy.dptw_caches1.demandAvgMshrMissLatency::processor.cores1.core.mmu.dtb.walker 17717.231222                       # average overall mshr miss latency ((Tick/Count))
board.cache_hierarchy.dptw_caches1.demandAvgMshrMissLatency::total 17717.231222                       # average overall mshr miss latency ((Tick/Count))
board.cache_hierarchy.dptw_caches1.overallAvgMshrMissLatency::processor.cores1.core.mmu.dtb.walker 17717.231222                       # average overall mshr miss latency ((Tick/Count))
board.cache_hierarchy.dptw_caches1.overallAvgMshrMissLatency::total 17717.231222                       # average overall mshr miss latency ((Tick/Count))
board.cache_hierarchy.dptw_caches1.replacements         1031                       # number of replacements (Count)
board.cache_hierarchy.dptw_caches1.ReadReq.hits::processor.cores1.core.mmu.dtb.walker         4921                       # number of ReadReq hits (Count)
board.cache_hierarchy.dptw_caches1.ReadReq.hits::total         4921                       # number of ReadReq hits (Count)
board.cache_hierarchy.dptw_caches1.ReadReq.misses::processor.cores1.core.mmu.dtb.walker         1358                       # number of ReadReq misses (Count)
board.cache_hierarchy.dptw_caches1.ReadReq.misses::total         1358                       # number of ReadReq misses (Count)
board.cache_hierarchy.dptw_caches1.ReadReq.missLatency::processor.cores1.core.mmu.dtb.walker     25418000                       # number of ReadReq miss ticks (Tick)
board.cache_hierarchy.dptw_caches1.ReadReq.missLatency::total     25418000                       # number of ReadReq miss ticks (Tick)
board.cache_hierarchy.dptw_caches1.ReadReq.accesses::processor.cores1.core.mmu.dtb.walker         6279                       # number of ReadReq accesses(hits+misses) (Count)
board.cache_hierarchy.dptw_caches1.ReadReq.accesses::total         6279                       # number of ReadReq accesses(hits+misses) (Count)
board.cache_hierarchy.dptw_caches1.ReadReq.missRate::processor.cores1.core.mmu.dtb.walker     0.216276                       # miss rate for ReadReq accesses (Ratio)
board.cache_hierarchy.dptw_caches1.ReadReq.missRate::total     0.216276                       # miss rate for ReadReq accesses (Ratio)
board.cache_hierarchy.dptw_caches1.ReadReq.avgMissLatency::processor.cores1.core.mmu.dtb.walker 18717.231222                       # average ReadReq miss latency ((Tick/Count))
board.cache_hierarchy.dptw_caches1.ReadReq.avgMissLatency::total 18717.231222                       # average ReadReq miss latency ((Tick/Count))
board.cache_hierarchy.dptw_caches1.ReadReq.mshrMisses::processor.cores1.core.mmu.dtb.walker         1358                       # number of ReadReq MSHR misses (Count)
board.cache_hierarchy.dptw_caches1.ReadReq.mshrMisses::total         1358                       # number of ReadReq MSHR misses (Count)
board.cache_hierarchy.dptw_caches1.ReadReq.mshrMissLatency::processor.cores1.core.mmu.dtb.walker     24060000                       # number of ReadReq MSHR miss ticks (Tick)
board.cache_hierarchy.dptw_caches1.ReadReq.mshrMissLatency::total     24060000                       # number of ReadReq MSHR miss ticks (Tick)
board.cache_hierarchy.dptw_caches1.ReadReq.mshrMissRate::processor.cores1.core.mmu.dtb.walker     0.216276                       # mshr miss rate for ReadReq accesses (Ratio)
board.cache_hierarchy.dptw_caches1.ReadReq.mshrMissRate::total     0.216276                       # mshr miss rate for ReadReq accesses (Ratio)
board.cache_hierarchy.dptw_caches1.ReadReq.avgMshrMissLatency::processor.cores1.core.mmu.dtb.walker 17717.231222                       # average ReadReq mshr miss latency ((Tick/Count))
board.cache_hierarchy.dptw_caches1.ReadReq.avgMshrMissLatency::total 17717.231222                       # average ReadReq mshr miss latency ((Tick/Count))
board.cache_hierarchy.dptw_caches1.power_state.pwrStateResidencyTicks::UNDEFINED 3500202690000                       # Cumulative time (in ticks) in various power states (Tick)
board.cache_hierarchy.dptw_caches1.tags.tagsInUse   110.619588                       # Average ticks per tags in use ((Tick/Count))
board.cache_hierarchy.dptw_caches1.tags.totalRefs         3871                       # Total number of references to valid blocks. (Count)
board.cache_hierarchy.dptw_caches1.tags.sampledRefs         1355                       # Sample count of references to valid blocks. (Count)
board.cache_hierarchy.dptw_caches1.tags.avgRefs     2.856827                       # Average number of references to valid blocks. ((Count/Count))
board.cache_hierarchy.dptw_caches1.tags.warmupTick            0                       # The tick when the warmup percentage was hit. (Tick)
board.cache_hierarchy.dptw_caches1.tags.occupancies::processor.cores1.core.mmu.dtb.walker   110.619588                       # Average occupied blocks per tick, per requestor ((Count/Tick))
board.cache_hierarchy.dptw_caches1.tags.avgOccs::processor.cores1.core.mmu.dtb.walker     0.864216                       # Average percentage of cache occupancy ((Ratio/Tick))
board.cache_hierarchy.dptw_caches1.tags.avgOccs::total     0.864216                       # Average percentage of cache occupancy ((Ratio/Tick))
board.cache_hierarchy.dptw_caches1.tags.occupanciesTaskId::1024          111                       # Occupied blocks per task id (Count)
board.cache_hierarchy.dptw_caches1.tags.ageTaskId_1024::1            3                       # Occupied blocks per task id, per block age (Count)
board.cache_hierarchy.dptw_caches1.tags.ageTaskId_1024::2            7                       # Occupied blocks per task id, per block age (Count)
board.cache_hierarchy.dptw_caches1.tags.ageTaskId_1024::3           21                       # Occupied blocks per task id, per block age (Count)
board.cache_hierarchy.dptw_caches1.tags.ageTaskId_1024::4           80                       # Occupied blocks per task id, per block age (Count)
board.cache_hierarchy.dptw_caches1.tags.ratioOccsTaskId::1024     0.867188                       # Ratio of occupied blocks and all blocks, per task id (Ratio)
board.cache_hierarchy.dptw_caches1.tags.tagAccesses        26474                       # Number of tag accesses (Count)
board.cache_hierarchy.dptw_caches1.tags.dataAccesses        26474                       # Number of data accesses (Count)
board.cache_hierarchy.dptw_caches1.tags.power_state.pwrStateResidencyTicks::UNDEFINED 3500202690000                       # Cumulative time (in ticks) in various power states (Tick)
board.cache_hierarchy.dptw_caches2.demandHits::processor.cores2.core.mmu.dtb.walker         4485                       # number of demand (read+write) hits (Count)
board.cache_hierarchy.dptw_caches2.demandHits::total         4485                       # number of demand (read+write) hits (Count)
board.cache_hierarchy.dptw_caches2.overallHits::processor.cores2.core.mmu.dtb.walker         4485                       # number of overall hits (Count)
board.cache_hierarchy.dptw_caches2.overallHits::total         4485                       # number of overall hits (Count)
board.cache_hierarchy.dptw_caches2.demandMisses::processor.cores2.core.mmu.dtb.walker         1334                       # number of demand (read+write) misses (Count)
board.cache_hierarchy.dptw_caches2.demandMisses::total         1334                       # number of demand (read+write) misses (Count)
board.cache_hierarchy.dptw_caches2.overallMisses::processor.cores2.core.mmu.dtb.walker         1334                       # number of overall misses (Count)
board.cache_hierarchy.dptw_caches2.overallMisses::total         1334                       # number of overall misses (Count)
board.cache_hierarchy.dptw_caches2.demandMissLatency::processor.cores2.core.mmu.dtb.walker     25150000                       # number of demand (read+write) miss ticks (Tick)
board.cache_hierarchy.dptw_caches2.demandMissLatency::total     25150000                       # number of demand (read+write) miss ticks (Tick)
board.cache_hierarchy.dptw_caches2.overallMissLatency::processor.cores2.core.mmu.dtb.walker     25150000                       # number of overall miss ticks (Tick)
board.cache_hierarchy.dptw_caches2.overallMissLatency::total     25150000                       # number of overall miss ticks (Tick)
board.cache_hierarchy.dptw_caches2.demandAccesses::processor.cores2.core.mmu.dtb.walker         5819                       # number of demand (read+write) accesses (Count)
board.cache_hierarchy.dptw_caches2.demandAccesses::total         5819                       # number of demand (read+write) accesses (Count)
board.cache_hierarchy.dptw_caches2.overallAccesses::processor.cores2.core.mmu.dtb.walker         5819                       # number of overall (read+write) accesses (Count)
board.cache_hierarchy.dptw_caches2.overallAccesses::total         5819                       # number of overall (read+write) accesses (Count)
board.cache_hierarchy.dptw_caches2.demandMissRate::processor.cores2.core.mmu.dtb.walker     0.229249                       # miss rate for demand accesses (Ratio)
board.cache_hierarchy.dptw_caches2.demandMissRate::total     0.229249                       # miss rate for demand accesses (Ratio)
board.cache_hierarchy.dptw_caches2.overallMissRate::processor.cores2.core.mmu.dtb.walker     0.229249                       # miss rate for overall accesses (Ratio)
board.cache_hierarchy.dptw_caches2.overallMissRate::total     0.229249                       # miss rate for overall accesses (Ratio)
board.cache_hierarchy.dptw_caches2.demandAvgMissLatency::processor.cores2.core.mmu.dtb.walker 18853.073463                       # average overall miss latency in ticks ((Tick/Count))
board.cache_hierarchy.dptw_caches2.demandAvgMissLatency::total 18853.073463                       # average overall miss latency in ticks ((Tick/Count))
board.cache_hierarchy.dptw_caches2.overallAvgMissLatency::processor.cores2.core.mmu.dtb.walker 18853.073463                       # average overall miss latency ((Tick/Count))
board.cache_hierarchy.dptw_caches2.overallAvgMissLatency::total 18853.073463                       # average overall miss latency ((Tick/Count))
board.cache_hierarchy.dptw_caches2.blockedCycles::no_mshrs            0                       # number of cycles access was blocked (Cycle)
board.cache_hierarchy.dptw_caches2.blockedCycles::no_targets            0                       # number of cycles access was blocked (Cycle)
board.cache_hierarchy.dptw_caches2.blockedCauses::no_mshrs            0                       # number of times access was blocked (Count)
board.cache_hierarchy.dptw_caches2.blockedCauses::no_targets            0                       # number of times access was blocked (Count)
board.cache_hierarchy.dptw_caches2.avgBlocked::no_mshrs          nan                       # average number of cycles each access was blocked ((Cycle/Count))
board.cache_hierarchy.dptw_caches2.avgBlocked::no_targets          nan                       # average number of cycles each access was blocked ((Cycle/Count))
board.cache_hierarchy.dptw_caches2.writebacks::writebacks          969                       # number of writebacks (Count)
board.cache_hierarchy.dptw_caches2.writebacks::total          969                       # number of writebacks (Count)
board.cache_hierarchy.dptw_caches2.demandMshrMisses::processor.cores2.core.mmu.dtb.walker         1334                       # number of demand (read+write) MSHR misses (Count)
board.cache_hierarchy.dptw_caches2.demandMshrMisses::total         1334                       # number of demand (read+write) MSHR misses (Count)
board.cache_hierarchy.dptw_caches2.overallMshrMisses::processor.cores2.core.mmu.dtb.walker         1334                       # number of overall MSHR misses (Count)
board.cache_hierarchy.dptw_caches2.overallMshrMisses::total         1334                       # number of overall MSHR misses (Count)
board.cache_hierarchy.dptw_caches2.demandMshrMissLatency::processor.cores2.core.mmu.dtb.walker     23816000                       # number of demand (read+write) MSHR miss ticks (Tick)
board.cache_hierarchy.dptw_caches2.demandMshrMissLatency::total     23816000                       # number of demand (read+write) MSHR miss ticks (Tick)
board.cache_hierarchy.dptw_caches2.overallMshrMissLatency::processor.cores2.core.mmu.dtb.walker     23816000                       # number of overall MSHR miss ticks (Tick)
board.cache_hierarchy.dptw_caches2.overallMshrMissLatency::total     23816000                       # number of overall MSHR miss ticks (Tick)
board.cache_hierarchy.dptw_caches2.demandMshrMissRate::processor.cores2.core.mmu.dtb.walker     0.229249                       # mshr miss ratio for demand accesses (Ratio)
board.cache_hierarchy.dptw_caches2.demandMshrMissRate::total     0.229249                       # mshr miss ratio for demand accesses (Ratio)
board.cache_hierarchy.dptw_caches2.overallMshrMissRate::processor.cores2.core.mmu.dtb.walker     0.229249                       # mshr miss ratio for overall accesses (Ratio)
board.cache_hierarchy.dptw_caches2.overallMshrMissRate::total     0.229249                       # mshr miss ratio for overall accesses (Ratio)
board.cache_hierarchy.dptw_caches2.demandAvgMshrMissLatency::processor.cores2.core.mmu.dtb.walker 17853.073463                       # average overall mshr miss latency ((Tick/Count))
board.cache_hierarchy.dptw_caches2.demandAvgMshrMissLatency::total 17853.073463                       # average overall mshr miss latency ((Tick/Count))
board.cache_hierarchy.dptw_caches2.overallAvgMshrMissLatency::processor.cores2.core.mmu.dtb.walker 17853.073463                       # average overall mshr miss latency ((Tick/Count))
board.cache_hierarchy.dptw_caches2.overallAvgMshrMissLatency::total 17853.073463                       # average overall mshr miss latency ((Tick/Count))
board.cache_hierarchy.dptw_caches2.replacements          969                       # number of replacements (Count)
board.cache_hierarchy.dptw_caches2.ReadReq.hits::processor.cores2.core.mmu.dtb.walker         4485                       # number of ReadReq hits (Count)
board.cache_hierarchy.dptw_caches2.ReadReq.hits::total         4485                       # number of ReadReq hits (Count)
board.cache_hierarchy.dptw_caches2.ReadReq.misses::processor.cores2.core.mmu.dtb.walker         1334                       # number of ReadReq misses (Count)
board.cache_hierarchy.dptw_caches2.ReadReq.misses::total         1334                       # number of ReadReq misses (Count)
board.cache_hierarchy.dptw_caches2.ReadReq.missLatency::processor.cores2.core.mmu.dtb.walker     25150000                       # number of ReadReq miss ticks (Tick)
board.cache_hierarchy.dptw_caches2.ReadReq.missLatency::total     25150000                       # number of ReadReq miss ticks (Tick)
board.cache_hierarchy.dptw_caches2.ReadReq.accesses::processor.cores2.core.mmu.dtb.walker         5819                       # number of ReadReq accesses(hits+misses) (Count)
board.cache_hierarchy.dptw_caches2.ReadReq.accesses::total         5819                       # number of ReadReq accesses(hits+misses) (Count)
board.cache_hierarchy.dptw_caches2.ReadReq.missRate::processor.cores2.core.mmu.dtb.walker     0.229249                       # miss rate for ReadReq accesses (Ratio)
board.cache_hierarchy.dptw_caches2.ReadReq.missRate::total     0.229249                       # miss rate for ReadReq accesses (Ratio)
board.cache_hierarchy.dptw_caches2.ReadReq.avgMissLatency::processor.cores2.core.mmu.dtb.walker 18853.073463                       # average ReadReq miss latency ((Tick/Count))
board.cache_hierarchy.dptw_caches2.ReadReq.avgMissLatency::total 18853.073463                       # average ReadReq miss latency ((Tick/Count))
board.cache_hierarchy.dptw_caches2.ReadReq.mshrMisses::processor.cores2.core.mmu.dtb.walker         1334                       # number of ReadReq MSHR misses (Count)
board.cache_hierarchy.dptw_caches2.ReadReq.mshrMisses::total         1334                       # number of ReadReq MSHR misses (Count)
board.cache_hierarchy.dptw_caches2.ReadReq.mshrMissLatency::processor.cores2.core.mmu.dtb.walker     23816000                       # number of ReadReq MSHR miss ticks (Tick)
board.cache_hierarchy.dptw_caches2.ReadReq.mshrMissLatency::total     23816000                       # number of ReadReq MSHR miss ticks (Tick)
board.cache_hierarchy.dptw_caches2.ReadReq.mshrMissRate::processor.cores2.core.mmu.dtb.walker     0.229249                       # mshr miss rate for ReadReq accesses (Ratio)
board.cache_hierarchy.dptw_caches2.ReadReq.mshrMissRate::total     0.229249                       # mshr miss rate for ReadReq accesses (Ratio)
board.cache_hierarchy.dptw_caches2.ReadReq.avgMshrMissLatency::processor.cores2.core.mmu.dtb.walker 17853.073463                       # average ReadReq mshr miss latency ((Tick/Count))
board.cache_hierarchy.dptw_caches2.ReadReq.avgMshrMissLatency::total 17853.073463                       # average ReadReq mshr miss latency ((Tick/Count))
board.cache_hierarchy.dptw_caches2.power_state.pwrStateResidencyTicks::UNDEFINED 3500202690000                       # Cumulative time (in ticks) in various power states (Tick)
board.cache_hierarchy.dptw_caches2.tags.tagsInUse    68.430947                       # Average ticks per tags in use ((Tick/Count))
board.cache_hierarchy.dptw_caches2.tags.totalRefs         1841                       # Total number of references to valid blocks. (Count)
board.cache_hierarchy.dptw_caches2.tags.sampledRefs         1292                       # Sample count of references to valid blocks. (Count)
board.cache_hierarchy.dptw_caches2.tags.avgRefs     1.424923                       # Average number of references to valid blocks. ((Count/Count))
board.cache_hierarchy.dptw_caches2.tags.warmupTick            0                       # The tick when the warmup percentage was hit. (Tick)
board.cache_hierarchy.dptw_caches2.tags.occupancies::processor.cores2.core.mmu.dtb.walker    68.430947                       # Average occupied blocks per tick, per requestor ((Count/Tick))
board.cache_hierarchy.dptw_caches2.tags.avgOccs::processor.cores2.core.mmu.dtb.walker     0.534617                       # Average percentage of cache occupancy ((Ratio/Tick))
board.cache_hierarchy.dptw_caches2.tags.avgOccs::total     0.534617                       # Average percentage of cache occupancy ((Ratio/Tick))
board.cache_hierarchy.dptw_caches2.tags.occupanciesTaskId::1024           75                       # Occupied blocks per task id (Count)
board.cache_hierarchy.dptw_caches2.tags.ageTaskId_1024::2            8                       # Occupied blocks per task id, per block age (Count)
board.cache_hierarchy.dptw_caches2.tags.ageTaskId_1024::3           24                       # Occupied blocks per task id, per block age (Count)
board.cache_hierarchy.dptw_caches2.tags.ageTaskId_1024::4           43                       # Occupied blocks per task id, per block age (Count)
board.cache_hierarchy.dptw_caches2.tags.ratioOccsTaskId::1024     0.585938                       # Ratio of occupied blocks and all blocks, per task id (Ratio)
board.cache_hierarchy.dptw_caches2.tags.tagAccesses        24610                       # Number of tag accesses (Count)
board.cache_hierarchy.dptw_caches2.tags.dataAccesses        24610                       # Number of data accesses (Count)
board.cache_hierarchy.dptw_caches2.tags.power_state.pwrStateResidencyTicks::UNDEFINED 3500202690000                       # Cumulative time (in ticks) in various power states (Tick)
board.cache_hierarchy.dptw_caches3.demandHits::processor.cores3.core.mmu.dtb.walker         4435                       # number of demand (read+write) hits (Count)
board.cache_hierarchy.dptw_caches3.demandHits::total         4435                       # number of demand (read+write) hits (Count)
board.cache_hierarchy.dptw_caches3.overallHits::processor.cores3.core.mmu.dtb.walker         4435                       # number of overall hits (Count)
board.cache_hierarchy.dptw_caches3.overallHits::total         4435                       # number of overall hits (Count)
board.cache_hierarchy.dptw_caches3.demandMisses::processor.cores3.core.mmu.dtb.walker         1390                       # number of demand (read+write) misses (Count)
board.cache_hierarchy.dptw_caches3.demandMisses::total         1390                       # number of demand (read+write) misses (Count)
board.cache_hierarchy.dptw_caches3.overallMisses::processor.cores3.core.mmu.dtb.walker         1390                       # number of overall misses (Count)
board.cache_hierarchy.dptw_caches3.overallMisses::total         1390                       # number of overall misses (Count)
board.cache_hierarchy.dptw_caches3.demandMissLatency::processor.cores3.core.mmu.dtb.walker     30287000                       # number of demand (read+write) miss ticks (Tick)
board.cache_hierarchy.dptw_caches3.demandMissLatency::total     30287000                       # number of demand (read+write) miss ticks (Tick)
board.cache_hierarchy.dptw_caches3.overallMissLatency::processor.cores3.core.mmu.dtb.walker     30287000                       # number of overall miss ticks (Tick)
board.cache_hierarchy.dptw_caches3.overallMissLatency::total     30287000                       # number of overall miss ticks (Tick)
board.cache_hierarchy.dptw_caches3.demandAccesses::processor.cores3.core.mmu.dtb.walker         5825                       # number of demand (read+write) accesses (Count)
board.cache_hierarchy.dptw_caches3.demandAccesses::total         5825                       # number of demand (read+write) accesses (Count)
board.cache_hierarchy.dptw_caches3.overallAccesses::processor.cores3.core.mmu.dtb.walker         5825                       # number of overall (read+write) accesses (Count)
board.cache_hierarchy.dptw_caches3.overallAccesses::total         5825                       # number of overall (read+write) accesses (Count)
board.cache_hierarchy.dptw_caches3.demandMissRate::processor.cores3.core.mmu.dtb.walker     0.238627                       # miss rate for demand accesses (Ratio)
board.cache_hierarchy.dptw_caches3.demandMissRate::total     0.238627                       # miss rate for demand accesses (Ratio)
board.cache_hierarchy.dptw_caches3.overallMissRate::processor.cores3.core.mmu.dtb.walker     0.238627                       # miss rate for overall accesses (Ratio)
board.cache_hierarchy.dptw_caches3.overallMissRate::total     0.238627                       # miss rate for overall accesses (Ratio)
board.cache_hierarchy.dptw_caches3.demandAvgMissLatency::processor.cores3.core.mmu.dtb.walker 21789.208633                       # average overall miss latency in ticks ((Tick/Count))
board.cache_hierarchy.dptw_caches3.demandAvgMissLatency::total 21789.208633                       # average overall miss latency in ticks ((Tick/Count))
board.cache_hierarchy.dptw_caches3.overallAvgMissLatency::processor.cores3.core.mmu.dtb.walker 21789.208633                       # average overall miss latency ((Tick/Count))
board.cache_hierarchy.dptw_caches3.overallAvgMissLatency::total 21789.208633                       # average overall miss latency ((Tick/Count))
board.cache_hierarchy.dptw_caches3.blockedCycles::no_mshrs            0                       # number of cycles access was blocked (Cycle)
board.cache_hierarchy.dptw_caches3.blockedCycles::no_targets            0                       # number of cycles access was blocked (Cycle)
board.cache_hierarchy.dptw_caches3.blockedCauses::no_mshrs            0                       # number of times access was blocked (Count)
board.cache_hierarchy.dptw_caches3.blockedCauses::no_targets            0                       # number of times access was blocked (Count)
board.cache_hierarchy.dptw_caches3.avgBlocked::no_mshrs          nan                       # average number of cycles each access was blocked ((Cycle/Count))
board.cache_hierarchy.dptw_caches3.avgBlocked::no_targets          nan                       # average number of cycles each access was blocked ((Cycle/Count))
board.cache_hierarchy.dptw_caches3.writebacks::writebacks         1035                       # number of writebacks (Count)
board.cache_hierarchy.dptw_caches3.writebacks::total         1035                       # number of writebacks (Count)
board.cache_hierarchy.dptw_caches3.demandMshrMisses::processor.cores3.core.mmu.dtb.walker         1390                       # number of demand (read+write) MSHR misses (Count)
board.cache_hierarchy.dptw_caches3.demandMshrMisses::total         1390                       # number of demand (read+write) MSHR misses (Count)
board.cache_hierarchy.dptw_caches3.overallMshrMisses::processor.cores3.core.mmu.dtb.walker         1390                       # number of overall MSHR misses (Count)
board.cache_hierarchy.dptw_caches3.overallMshrMisses::total         1390                       # number of overall MSHR misses (Count)
board.cache_hierarchy.dptw_caches3.demandMshrMissLatency::processor.cores3.core.mmu.dtb.walker     28897000                       # number of demand (read+write) MSHR miss ticks (Tick)
board.cache_hierarchy.dptw_caches3.demandMshrMissLatency::total     28897000                       # number of demand (read+write) MSHR miss ticks (Tick)
board.cache_hierarchy.dptw_caches3.overallMshrMissLatency::processor.cores3.core.mmu.dtb.walker     28897000                       # number of overall MSHR miss ticks (Tick)
board.cache_hierarchy.dptw_caches3.overallMshrMissLatency::total     28897000                       # number of overall MSHR miss ticks (Tick)
board.cache_hierarchy.dptw_caches3.demandMshrMissRate::processor.cores3.core.mmu.dtb.walker     0.238627                       # mshr miss ratio for demand accesses (Ratio)
board.cache_hierarchy.dptw_caches3.demandMshrMissRate::total     0.238627                       # mshr miss ratio for demand accesses (Ratio)
board.cache_hierarchy.dptw_caches3.overallMshrMissRate::processor.cores3.core.mmu.dtb.walker     0.238627                       # mshr miss ratio for overall accesses (Ratio)
board.cache_hierarchy.dptw_caches3.overallMshrMissRate::total     0.238627                       # mshr miss ratio for overall accesses (Ratio)
board.cache_hierarchy.dptw_caches3.demandAvgMshrMissLatency::processor.cores3.core.mmu.dtb.walker 20789.208633                       # average overall mshr miss latency ((Tick/Count))
board.cache_hierarchy.dptw_caches3.demandAvgMshrMissLatency::total 20789.208633                       # average overall mshr miss latency ((Tick/Count))
board.cache_hierarchy.dptw_caches3.overallAvgMshrMissLatency::processor.cores3.core.mmu.dtb.walker 20789.208633                       # average overall mshr miss latency ((Tick/Count))
board.cache_hierarchy.dptw_caches3.overallAvgMshrMissLatency::total 20789.208633                       # average overall mshr miss latency ((Tick/Count))
board.cache_hierarchy.dptw_caches3.replacements         1035                       # number of replacements (Count)
board.cache_hierarchy.dptw_caches3.ReadReq.hits::processor.cores3.core.mmu.dtb.walker         4435                       # number of ReadReq hits (Count)
board.cache_hierarchy.dptw_caches3.ReadReq.hits::total         4435                       # number of ReadReq hits (Count)
board.cache_hierarchy.dptw_caches3.ReadReq.misses::processor.cores3.core.mmu.dtb.walker         1390                       # number of ReadReq misses (Count)
board.cache_hierarchy.dptw_caches3.ReadReq.misses::total         1390                       # number of ReadReq misses (Count)
board.cache_hierarchy.dptw_caches3.ReadReq.missLatency::processor.cores3.core.mmu.dtb.walker     30287000                       # number of ReadReq miss ticks (Tick)
board.cache_hierarchy.dptw_caches3.ReadReq.missLatency::total     30287000                       # number of ReadReq miss ticks (Tick)
board.cache_hierarchy.dptw_caches3.ReadReq.accesses::processor.cores3.core.mmu.dtb.walker         5825                       # number of ReadReq accesses(hits+misses) (Count)
board.cache_hierarchy.dptw_caches3.ReadReq.accesses::total         5825                       # number of ReadReq accesses(hits+misses) (Count)
board.cache_hierarchy.dptw_caches3.ReadReq.missRate::processor.cores3.core.mmu.dtb.walker     0.238627                       # miss rate for ReadReq accesses (Ratio)
board.cache_hierarchy.dptw_caches3.ReadReq.missRate::total     0.238627                       # miss rate for ReadReq accesses (Ratio)
board.cache_hierarchy.dptw_caches3.ReadReq.avgMissLatency::processor.cores3.core.mmu.dtb.walker 21789.208633                       # average ReadReq miss latency ((Tick/Count))
board.cache_hierarchy.dptw_caches3.ReadReq.avgMissLatency::total 21789.208633                       # average ReadReq miss latency ((Tick/Count))
board.cache_hierarchy.dptw_caches3.ReadReq.mshrMisses::processor.cores3.core.mmu.dtb.walker         1390                       # number of ReadReq MSHR misses (Count)
board.cache_hierarchy.dptw_caches3.ReadReq.mshrMisses::total         1390                       # number of ReadReq MSHR misses (Count)
board.cache_hierarchy.dptw_caches3.ReadReq.mshrMissLatency::processor.cores3.core.mmu.dtb.walker     28897000                       # number of ReadReq MSHR miss ticks (Tick)
board.cache_hierarchy.dptw_caches3.ReadReq.mshrMissLatency::total     28897000                       # number of ReadReq MSHR miss ticks (Tick)
board.cache_hierarchy.dptw_caches3.ReadReq.mshrMissRate::processor.cores3.core.mmu.dtb.walker     0.238627                       # mshr miss rate for ReadReq accesses (Ratio)
board.cache_hierarchy.dptw_caches3.ReadReq.mshrMissRate::total     0.238627                       # mshr miss rate for ReadReq accesses (Ratio)
board.cache_hierarchy.dptw_caches3.ReadReq.avgMshrMissLatency::processor.cores3.core.mmu.dtb.walker 20789.208633                       # average ReadReq mshr miss latency ((Tick/Count))
board.cache_hierarchy.dptw_caches3.ReadReq.avgMshrMissLatency::total 20789.208633                       # average ReadReq mshr miss latency ((Tick/Count))
board.cache_hierarchy.dptw_caches3.power_state.pwrStateResidencyTicks::UNDEFINED 3500202690000                       # Cumulative time (in ticks) in various power states (Tick)
board.cache_hierarchy.dptw_caches3.tags.tagsInUse    67.909849                       # Average ticks per tags in use ((Tick/Count))
board.cache_hierarchy.dptw_caches3.tags.totalRefs         2135                       # Total number of references to valid blocks. (Count)
board.cache_hierarchy.dptw_caches3.tags.sampledRefs         1359                       # Sample count of references to valid blocks. (Count)
board.cache_hierarchy.dptw_caches3.tags.avgRefs     1.571008                       # Average number of references to valid blocks. ((Count/Count))
board.cache_hierarchy.dptw_caches3.tags.warmupTick            0                       # The tick when the warmup percentage was hit. (Tick)
board.cache_hierarchy.dptw_caches3.tags.occupancies::processor.cores3.core.mmu.dtb.walker    67.909849                       # Average occupied blocks per tick, per requestor ((Count/Tick))
board.cache_hierarchy.dptw_caches3.tags.avgOccs::processor.cores3.core.mmu.dtb.walker     0.530546                       # Average percentage of cache occupancy ((Ratio/Tick))
board.cache_hierarchy.dptw_caches3.tags.avgOccs::total     0.530546                       # Average percentage of cache occupancy ((Ratio/Tick))
board.cache_hierarchy.dptw_caches3.tags.occupanciesTaskId::1024           72                       # Occupied blocks per task id (Count)
board.cache_hierarchy.dptw_caches3.tags.ageTaskId_1024::1            2                       # Occupied blocks per task id, per block age (Count)
board.cache_hierarchy.dptw_caches3.tags.ageTaskId_1024::2            6                       # Occupied blocks per task id, per block age (Count)
board.cache_hierarchy.dptw_caches3.tags.ageTaskId_1024::3           23                       # Occupied blocks per task id, per block age (Count)
board.cache_hierarchy.dptw_caches3.tags.ageTaskId_1024::4           41                       # Occupied blocks per task id, per block age (Count)
board.cache_hierarchy.dptw_caches3.tags.ratioOccsTaskId::1024     0.562500                       # Ratio of occupied blocks and all blocks, per task id (Ratio)
board.cache_hierarchy.dptw_caches3.tags.tagAccesses        24690                       # Number of tag accesses (Count)
board.cache_hierarchy.dptw_caches3.tags.dataAccesses        24690                       # Number of data accesses (Count)
board.cache_hierarchy.dptw_caches3.tags.power_state.pwrStateResidencyTicks::UNDEFINED 3500202690000                       # Cumulative time (in ticks) in various power states (Tick)
board.cache_hierarchy.iocache.blockedCycles::no_mshrs            0                       # number of cycles access was blocked (Cycle)
board.cache_hierarchy.iocache.blockedCycles::no_targets            0                       # number of cycles access was blocked (Cycle)
board.cache_hierarchy.iocache.blockedCauses::no_mshrs            0                       # number of times access was blocked (Count)
board.cache_hierarchy.iocache.blockedCauses::no_targets            0                       # number of times access was blocked (Count)
board.cache_hierarchy.iocache.avgBlocked::no_mshrs          nan                       # average number of cycles each access was blocked ((Cycle/Count))
board.cache_hierarchy.iocache.avgBlocked::no_targets          nan                       # average number of cycles each access was blocked ((Cycle/Count))
board.cache_hierarchy.iocache.replacements            0                       # number of replacements (Count)
board.cache_hierarchy.iocache.power_state.pwrStateResidencyTicks::UNDEFINED 3500202690000                       # Cumulative time (in ticks) in various power states (Tick)
board.cache_hierarchy.iocache.tags.tagsInUse            0                       # Average ticks per tags in use ((Tick/Count))
board.cache_hierarchy.iocache.tags.totalRefs            0                       # Total number of references to valid blocks. (Count)
board.cache_hierarchy.iocache.tags.sampledRefs            0                       # Sample count of references to valid blocks. (Count)
board.cache_hierarchy.iocache.tags.avgRefs          nan                       # Average number of references to valid blocks. ((Count/Count))
board.cache_hierarchy.iocache.tags.warmupTick            0                       # The tick when the warmup percentage was hit. (Tick)
board.cache_hierarchy.iocache.tags.tagAccesses            0                       # Number of tag accesses (Count)
board.cache_hierarchy.iocache.tags.dataAccesses            0                       # Number of data accesses (Count)
board.cache_hierarchy.iocache.tags.power_state.pwrStateResidencyTicks::UNDEFINED 3500202690000                       # Cumulative time (in ticks) in various power states (Tick)
board.cache_hierarchy.iptw_caches0.demandHits::processor.cores0.core.mmu.itb.walker           25                       # number of demand (read+write) hits (Count)
board.cache_hierarchy.iptw_caches0.demandHits::total           25                       # number of demand (read+write) hits (Count)
board.cache_hierarchy.iptw_caches0.overallHits::processor.cores0.core.mmu.itb.walker           25                       # number of overall hits (Count)
board.cache_hierarchy.iptw_caches0.overallHits::total           25                       # number of overall hits (Count)
board.cache_hierarchy.iptw_caches0.demandMisses::processor.cores0.core.mmu.itb.walker            8                       # number of demand (read+write) misses (Count)
board.cache_hierarchy.iptw_caches0.demandMisses::total            8                       # number of demand (read+write) misses (Count)
board.cache_hierarchy.iptw_caches0.overallMisses::processor.cores0.core.mmu.itb.walker            8                       # number of overall misses (Count)
board.cache_hierarchy.iptw_caches0.overallMisses::total            8                       # number of overall misses (Count)
board.cache_hierarchy.iptw_caches0.demandMissLatency::processor.cores0.core.mmu.itb.walker       602000                       # number of demand (read+write) miss ticks (Tick)
board.cache_hierarchy.iptw_caches0.demandMissLatency::total       602000                       # number of demand (read+write) miss ticks (Tick)
board.cache_hierarchy.iptw_caches0.overallMissLatency::processor.cores0.core.mmu.itb.walker       602000                       # number of overall miss ticks (Tick)
board.cache_hierarchy.iptw_caches0.overallMissLatency::total       602000                       # number of overall miss ticks (Tick)
board.cache_hierarchy.iptw_caches0.demandAccesses::processor.cores0.core.mmu.itb.walker           33                       # number of demand (read+write) accesses (Count)
board.cache_hierarchy.iptw_caches0.demandAccesses::total           33                       # number of demand (read+write) accesses (Count)
board.cache_hierarchy.iptw_caches0.overallAccesses::processor.cores0.core.mmu.itb.walker           33                       # number of overall (read+write) accesses (Count)
board.cache_hierarchy.iptw_caches0.overallAccesses::total           33                       # number of overall (read+write) accesses (Count)
board.cache_hierarchy.iptw_caches0.demandMissRate::processor.cores0.core.mmu.itb.walker     0.242424                       # miss rate for demand accesses (Ratio)
board.cache_hierarchy.iptw_caches0.demandMissRate::total     0.242424                       # miss rate for demand accesses (Ratio)
board.cache_hierarchy.iptw_caches0.overallMissRate::processor.cores0.core.mmu.itb.walker     0.242424                       # miss rate for overall accesses (Ratio)
board.cache_hierarchy.iptw_caches0.overallMissRate::total     0.242424                       # miss rate for overall accesses (Ratio)
board.cache_hierarchy.iptw_caches0.demandAvgMissLatency::processor.cores0.core.mmu.itb.walker        75250                       # average overall miss latency in ticks ((Tick/Count))
board.cache_hierarchy.iptw_caches0.demandAvgMissLatency::total        75250                       # average overall miss latency in ticks ((Tick/Count))
board.cache_hierarchy.iptw_caches0.overallAvgMissLatency::processor.cores0.core.mmu.itb.walker        75250                       # average overall miss latency ((Tick/Count))
board.cache_hierarchy.iptw_caches0.overallAvgMissLatency::total        75250                       # average overall miss latency ((Tick/Count))
board.cache_hierarchy.iptw_caches0.blockedCycles::no_mshrs            0                       # number of cycles access was blocked (Cycle)
board.cache_hierarchy.iptw_caches0.blockedCycles::no_targets            0                       # number of cycles access was blocked (Cycle)
board.cache_hierarchy.iptw_caches0.blockedCauses::no_mshrs            0                       # number of times access was blocked (Count)
board.cache_hierarchy.iptw_caches0.blockedCauses::no_targets            0                       # number of times access was blocked (Count)
board.cache_hierarchy.iptw_caches0.avgBlocked::no_mshrs          nan                       # average number of cycles each access was blocked ((Cycle/Count))
board.cache_hierarchy.iptw_caches0.avgBlocked::no_targets          nan                       # average number of cycles each access was blocked ((Cycle/Count))
board.cache_hierarchy.iptw_caches0.writebacks::writebacks            3                       # number of writebacks (Count)
board.cache_hierarchy.iptw_caches0.writebacks::total            3                       # number of writebacks (Count)
board.cache_hierarchy.iptw_caches0.demandMshrMisses::processor.cores0.core.mmu.itb.walker            8                       # number of demand (read+write) MSHR misses (Count)
board.cache_hierarchy.iptw_caches0.demandMshrMisses::total            8                       # number of demand (read+write) MSHR misses (Count)
board.cache_hierarchy.iptw_caches0.overallMshrMisses::processor.cores0.core.mmu.itb.walker            8                       # number of overall MSHR misses (Count)
board.cache_hierarchy.iptw_caches0.overallMshrMisses::total            8                       # number of overall MSHR misses (Count)
board.cache_hierarchy.iptw_caches0.demandMshrMissLatency::processor.cores0.core.mmu.itb.walker       594000                       # number of demand (read+write) MSHR miss ticks (Tick)
board.cache_hierarchy.iptw_caches0.demandMshrMissLatency::total       594000                       # number of demand (read+write) MSHR miss ticks (Tick)
board.cache_hierarchy.iptw_caches0.overallMshrMissLatency::processor.cores0.core.mmu.itb.walker       594000                       # number of overall MSHR miss ticks (Tick)
board.cache_hierarchy.iptw_caches0.overallMshrMissLatency::total       594000                       # number of overall MSHR miss ticks (Tick)
board.cache_hierarchy.iptw_caches0.demandMshrMissRate::processor.cores0.core.mmu.itb.walker     0.242424                       # mshr miss ratio for demand accesses (Ratio)
board.cache_hierarchy.iptw_caches0.demandMshrMissRate::total     0.242424                       # mshr miss ratio for demand accesses (Ratio)
board.cache_hierarchy.iptw_caches0.overallMshrMissRate::processor.cores0.core.mmu.itb.walker     0.242424                       # mshr miss ratio for overall accesses (Ratio)
board.cache_hierarchy.iptw_caches0.overallMshrMissRate::total     0.242424                       # mshr miss ratio for overall accesses (Ratio)
board.cache_hierarchy.iptw_caches0.demandAvgMshrMissLatency::processor.cores0.core.mmu.itb.walker        74250                       # average overall mshr miss latency ((Tick/Count))
board.cache_hierarchy.iptw_caches0.demandAvgMshrMissLatency::total        74250                       # average overall mshr miss latency ((Tick/Count))
board.cache_hierarchy.iptw_caches0.overallAvgMshrMissLatency::processor.cores0.core.mmu.itb.walker        74250                       # average overall mshr miss latency ((Tick/Count))
board.cache_hierarchy.iptw_caches0.overallAvgMshrMissLatency::total        74250                       # average overall mshr miss latency ((Tick/Count))
board.cache_hierarchy.iptw_caches0.replacements            3                       # number of replacements (Count)
board.cache_hierarchy.iptw_caches0.ReadReq.hits::processor.cores0.core.mmu.itb.walker           25                       # number of ReadReq hits (Count)
board.cache_hierarchy.iptw_caches0.ReadReq.hits::total           25                       # number of ReadReq hits (Count)
board.cache_hierarchy.iptw_caches0.ReadReq.misses::processor.cores0.core.mmu.itb.walker            8                       # number of ReadReq misses (Count)
board.cache_hierarchy.iptw_caches0.ReadReq.misses::total            8                       # number of ReadReq misses (Count)
board.cache_hierarchy.iptw_caches0.ReadReq.missLatency::processor.cores0.core.mmu.itb.walker       602000                       # number of ReadReq miss ticks (Tick)
board.cache_hierarchy.iptw_caches0.ReadReq.missLatency::total       602000                       # number of ReadReq miss ticks (Tick)
board.cache_hierarchy.iptw_caches0.ReadReq.accesses::processor.cores0.core.mmu.itb.walker           33                       # number of ReadReq accesses(hits+misses) (Count)
board.cache_hierarchy.iptw_caches0.ReadReq.accesses::total           33                       # number of ReadReq accesses(hits+misses) (Count)
board.cache_hierarchy.iptw_caches0.ReadReq.missRate::processor.cores0.core.mmu.itb.walker     0.242424                       # miss rate for ReadReq accesses (Ratio)
board.cache_hierarchy.iptw_caches0.ReadReq.missRate::total     0.242424                       # miss rate for ReadReq accesses (Ratio)
board.cache_hierarchy.iptw_caches0.ReadReq.avgMissLatency::processor.cores0.core.mmu.itb.walker        75250                       # average ReadReq miss latency ((Tick/Count))
board.cache_hierarchy.iptw_caches0.ReadReq.avgMissLatency::total        75250                       # average ReadReq miss latency ((Tick/Count))
board.cache_hierarchy.iptw_caches0.ReadReq.mshrMisses::processor.cores0.core.mmu.itb.walker            8                       # number of ReadReq MSHR misses (Count)
board.cache_hierarchy.iptw_caches0.ReadReq.mshrMisses::total            8                       # number of ReadReq MSHR misses (Count)
board.cache_hierarchy.iptw_caches0.ReadReq.mshrMissLatency::processor.cores0.core.mmu.itb.walker       594000                       # number of ReadReq MSHR miss ticks (Tick)
board.cache_hierarchy.iptw_caches0.ReadReq.mshrMissLatency::total       594000                       # number of ReadReq MSHR miss ticks (Tick)
board.cache_hierarchy.iptw_caches0.ReadReq.mshrMissRate::processor.cores0.core.mmu.itb.walker     0.242424                       # mshr miss rate for ReadReq accesses (Ratio)
board.cache_hierarchy.iptw_caches0.ReadReq.mshrMissRate::total     0.242424                       # mshr miss rate for ReadReq accesses (Ratio)
board.cache_hierarchy.iptw_caches0.ReadReq.avgMshrMissLatency::processor.cores0.core.mmu.itb.walker        74250                       # average ReadReq mshr miss latency ((Tick/Count))
board.cache_hierarchy.iptw_caches0.ReadReq.avgMshrMissLatency::total        74250                       # average ReadReq mshr miss latency ((Tick/Count))
board.cache_hierarchy.iptw_caches0.power_state.pwrStateResidencyTicks::UNDEFINED 3500202690000                       # Cumulative time (in ticks) in various power states (Tick)
board.cache_hierarchy.iptw_caches0.tags.tagsInUse    58.916557                       # Average ticks per tags in use ((Tick/Count))
board.cache_hierarchy.iptw_caches0.tags.totalRefs           69                       # Total number of references to valid blocks. (Count)
board.cache_hierarchy.iptw_caches0.tags.sampledRefs            3                       # Sample count of references to valid blocks. (Count)
board.cache_hierarchy.iptw_caches0.tags.avgRefs           23                       # Average number of references to valid blocks. ((Count/Count))
board.cache_hierarchy.iptw_caches0.tags.warmupTick            0                       # The tick when the warmup percentage was hit. (Tick)
board.cache_hierarchy.iptw_caches0.tags.occupancies::processor.cores0.core.mmu.itb.walker    58.916557                       # Average occupied blocks per tick, per requestor ((Count/Tick))
board.cache_hierarchy.iptw_caches0.tags.avgOccs::processor.cores0.core.mmu.itb.walker     0.460286                       # Average percentage of cache occupancy ((Ratio/Tick))
board.cache_hierarchy.iptw_caches0.tags.avgOccs::total     0.460286                       # Average percentage of cache occupancy ((Ratio/Tick))
board.cache_hierarchy.iptw_caches0.tags.occupanciesTaskId::1024           59                       # Occupied blocks per task id (Count)
board.cache_hierarchy.iptw_caches0.tags.ageTaskId_1024::4           59                       # Occupied blocks per task id, per block age (Count)
board.cache_hierarchy.iptw_caches0.tags.ratioOccsTaskId::1024     0.460938                       # Ratio of occupied blocks and all blocks, per task id (Ratio)
board.cache_hierarchy.iptw_caches0.tags.tagAccesses          140                       # Number of tag accesses (Count)
board.cache_hierarchy.iptw_caches0.tags.dataAccesses          140                       # Number of data accesses (Count)
board.cache_hierarchy.iptw_caches0.tags.power_state.pwrStateResidencyTicks::UNDEFINED 3500202690000                       # Cumulative time (in ticks) in various power states (Tick)
board.cache_hierarchy.iptw_caches1.demandHits::processor.cores1.core.mmu.itb.walker           17                       # number of demand (read+write) hits (Count)
board.cache_hierarchy.iptw_caches1.demandHits::total           17                       # number of demand (read+write) hits (Count)
board.cache_hierarchy.iptw_caches1.overallHits::processor.cores1.core.mmu.itb.walker           17                       # number of overall hits (Count)
board.cache_hierarchy.iptw_caches1.overallHits::total           17                       # number of overall hits (Count)
board.cache_hierarchy.iptw_caches1.demandMisses::processor.cores1.core.mmu.itb.walker            1                       # number of demand (read+write) misses (Count)
board.cache_hierarchy.iptw_caches1.demandMisses::total            1                       # number of demand (read+write) misses (Count)
board.cache_hierarchy.iptw_caches1.overallMisses::processor.cores1.core.mmu.itb.walker            1                       # number of overall misses (Count)
board.cache_hierarchy.iptw_caches1.overallMisses::total            1                       # number of overall misses (Count)
board.cache_hierarchy.iptw_caches1.demandMissLatency::processor.cores1.core.mmu.itb.walker         5000                       # number of demand (read+write) miss ticks (Tick)
board.cache_hierarchy.iptw_caches1.demandMissLatency::total         5000                       # number of demand (read+write) miss ticks (Tick)
board.cache_hierarchy.iptw_caches1.overallMissLatency::processor.cores1.core.mmu.itb.walker         5000                       # number of overall miss ticks (Tick)
board.cache_hierarchy.iptw_caches1.overallMissLatency::total         5000                       # number of overall miss ticks (Tick)
board.cache_hierarchy.iptw_caches1.demandAccesses::processor.cores1.core.mmu.itb.walker           18                       # number of demand (read+write) accesses (Count)
board.cache_hierarchy.iptw_caches1.demandAccesses::total           18                       # number of demand (read+write) accesses (Count)
board.cache_hierarchy.iptw_caches1.overallAccesses::processor.cores1.core.mmu.itb.walker           18                       # number of overall (read+write) accesses (Count)
board.cache_hierarchy.iptw_caches1.overallAccesses::total           18                       # number of overall (read+write) accesses (Count)
board.cache_hierarchy.iptw_caches1.demandMissRate::processor.cores1.core.mmu.itb.walker     0.055556                       # miss rate for demand accesses (Ratio)
board.cache_hierarchy.iptw_caches1.demandMissRate::total     0.055556                       # miss rate for demand accesses (Ratio)
board.cache_hierarchy.iptw_caches1.overallMissRate::processor.cores1.core.mmu.itb.walker     0.055556                       # miss rate for overall accesses (Ratio)
board.cache_hierarchy.iptw_caches1.overallMissRate::total     0.055556                       # miss rate for overall accesses (Ratio)
board.cache_hierarchy.iptw_caches1.demandAvgMissLatency::processor.cores1.core.mmu.itb.walker         5000                       # average overall miss latency in ticks ((Tick/Count))
board.cache_hierarchy.iptw_caches1.demandAvgMissLatency::total         5000                       # average overall miss latency in ticks ((Tick/Count))
board.cache_hierarchy.iptw_caches1.overallAvgMissLatency::processor.cores1.core.mmu.itb.walker         5000                       # average overall miss latency ((Tick/Count))
board.cache_hierarchy.iptw_caches1.overallAvgMissLatency::total         5000                       # average overall miss latency ((Tick/Count))
board.cache_hierarchy.iptw_caches1.blockedCycles::no_mshrs            0                       # number of cycles access was blocked (Cycle)
board.cache_hierarchy.iptw_caches1.blockedCycles::no_targets            0                       # number of cycles access was blocked (Cycle)
board.cache_hierarchy.iptw_caches1.blockedCauses::no_mshrs            0                       # number of times access was blocked (Count)
board.cache_hierarchy.iptw_caches1.blockedCauses::no_targets            0                       # number of times access was blocked (Count)
board.cache_hierarchy.iptw_caches1.avgBlocked::no_mshrs          nan                       # average number of cycles each access was blocked ((Cycle/Count))
board.cache_hierarchy.iptw_caches1.avgBlocked::no_targets          nan                       # average number of cycles each access was blocked ((Cycle/Count))
board.cache_hierarchy.iptw_caches1.demandMshrMisses::processor.cores1.core.mmu.itb.walker            1                       # number of demand (read+write) MSHR misses (Count)
board.cache_hierarchy.iptw_caches1.demandMshrMisses::total            1                       # number of demand (read+write) MSHR misses (Count)
board.cache_hierarchy.iptw_caches1.overallMshrMisses::processor.cores1.core.mmu.itb.walker            1                       # number of overall MSHR misses (Count)
board.cache_hierarchy.iptw_caches1.overallMshrMisses::total            1                       # number of overall MSHR misses (Count)
board.cache_hierarchy.iptw_caches1.demandMshrMissLatency::processor.cores1.core.mmu.itb.walker         4000                       # number of demand (read+write) MSHR miss ticks (Tick)
board.cache_hierarchy.iptw_caches1.demandMshrMissLatency::total         4000                       # number of demand (read+write) MSHR miss ticks (Tick)
board.cache_hierarchy.iptw_caches1.overallMshrMissLatency::processor.cores1.core.mmu.itb.walker         4000                       # number of overall MSHR miss ticks (Tick)
board.cache_hierarchy.iptw_caches1.overallMshrMissLatency::total         4000                       # number of overall MSHR miss ticks (Tick)
board.cache_hierarchy.iptw_caches1.demandMshrMissRate::processor.cores1.core.mmu.itb.walker     0.055556                       # mshr miss ratio for demand accesses (Ratio)
board.cache_hierarchy.iptw_caches1.demandMshrMissRate::total     0.055556                       # mshr miss ratio for demand accesses (Ratio)
board.cache_hierarchy.iptw_caches1.overallMshrMissRate::processor.cores1.core.mmu.itb.walker     0.055556                       # mshr miss ratio for overall accesses (Ratio)
board.cache_hierarchy.iptw_caches1.overallMshrMissRate::total     0.055556                       # mshr miss ratio for overall accesses (Ratio)
board.cache_hierarchy.iptw_caches1.demandAvgMshrMissLatency::processor.cores1.core.mmu.itb.walker         4000                       # average overall mshr miss latency ((Tick/Count))
board.cache_hierarchy.iptw_caches1.demandAvgMshrMissLatency::total         4000                       # average overall mshr miss latency ((Tick/Count))
board.cache_hierarchy.iptw_caches1.overallAvgMshrMissLatency::processor.cores1.core.mmu.itb.walker         4000                       # average overall mshr miss latency ((Tick/Count))
board.cache_hierarchy.iptw_caches1.overallAvgMshrMissLatency::total         4000                       # average overall mshr miss latency ((Tick/Count))
board.cache_hierarchy.iptw_caches1.replacements            0                       # number of replacements (Count)
board.cache_hierarchy.iptw_caches1.ReadReq.hits::processor.cores1.core.mmu.itb.walker           17                       # number of ReadReq hits (Count)
board.cache_hierarchy.iptw_caches1.ReadReq.hits::total           17                       # number of ReadReq hits (Count)
board.cache_hierarchy.iptw_caches1.ReadReq.misses::processor.cores1.core.mmu.itb.walker            1                       # number of ReadReq misses (Count)
board.cache_hierarchy.iptw_caches1.ReadReq.misses::total            1                       # number of ReadReq misses (Count)
board.cache_hierarchy.iptw_caches1.ReadReq.missLatency::processor.cores1.core.mmu.itb.walker         5000                       # number of ReadReq miss ticks (Tick)
board.cache_hierarchy.iptw_caches1.ReadReq.missLatency::total         5000                       # number of ReadReq miss ticks (Tick)
board.cache_hierarchy.iptw_caches1.ReadReq.accesses::processor.cores1.core.mmu.itb.walker           18                       # number of ReadReq accesses(hits+misses) (Count)
board.cache_hierarchy.iptw_caches1.ReadReq.accesses::total           18                       # number of ReadReq accesses(hits+misses) (Count)
board.cache_hierarchy.iptw_caches1.ReadReq.missRate::processor.cores1.core.mmu.itb.walker     0.055556                       # miss rate for ReadReq accesses (Ratio)
board.cache_hierarchy.iptw_caches1.ReadReq.missRate::total     0.055556                       # miss rate for ReadReq accesses (Ratio)
board.cache_hierarchy.iptw_caches1.ReadReq.avgMissLatency::processor.cores1.core.mmu.itb.walker         5000                       # average ReadReq miss latency ((Tick/Count))
board.cache_hierarchy.iptw_caches1.ReadReq.avgMissLatency::total         5000                       # average ReadReq miss latency ((Tick/Count))
board.cache_hierarchy.iptw_caches1.ReadReq.mshrMisses::processor.cores1.core.mmu.itb.walker            1                       # number of ReadReq MSHR misses (Count)
board.cache_hierarchy.iptw_caches1.ReadReq.mshrMisses::total            1                       # number of ReadReq MSHR misses (Count)
board.cache_hierarchy.iptw_caches1.ReadReq.mshrMissLatency::processor.cores1.core.mmu.itb.walker         4000                       # number of ReadReq MSHR miss ticks (Tick)
board.cache_hierarchy.iptw_caches1.ReadReq.mshrMissLatency::total         4000                       # number of ReadReq MSHR miss ticks (Tick)
board.cache_hierarchy.iptw_caches1.ReadReq.mshrMissRate::processor.cores1.core.mmu.itb.walker     0.055556                       # mshr miss rate for ReadReq accesses (Ratio)
board.cache_hierarchy.iptw_caches1.ReadReq.mshrMissRate::total     0.055556                       # mshr miss rate for ReadReq accesses (Ratio)
board.cache_hierarchy.iptw_caches1.ReadReq.avgMshrMissLatency::processor.cores1.core.mmu.itb.walker         4000                       # average ReadReq mshr miss latency ((Tick/Count))
board.cache_hierarchy.iptw_caches1.ReadReq.avgMshrMissLatency::total         4000                       # average ReadReq mshr miss latency ((Tick/Count))
[...]
board.processor.cores3.core.commitStats0.committedInstType::SimdAddAcc            0      0.00%     74.39% # Class of committed instruction. (Count)
board.processor.cores3.core.commitStats0.committedInstType::SimdAlu            0      0.00%     74.39% # Class of committed instruction. (Count)
board.processor.cores3.core.commitStats0.committedInstType::SimdCmp            0      0.00%     74.39% # Class of committed instruction. (Count)
board.processor.cores3.core.commitStats0.committedInstType::SimdCvt            0      0.00%     74.39% # Class of committed instruction. (Count)
board.processor.cores3.core.commitStats0.committedInstType::SimdMisc            0      0.00%     74.39% # Class of committed instruction. (Count)
board.processor.cores3.core.commitStats0.committedInstType::SimdMult            0      0.00%     74.39% # Class of committed instruction. (Count)
board.processor.cores3.core.commitStats0.committedInstType::SimdMultAcc            0      0.00%     74.39% # Class of committed instruction. (Count)
board.processor.cores3.core.commitStats0.committedInstType::SimdMatMultAcc            0      0.00%     74.39% # Class of committed instruction. (Count)
board.processor.cores3.core.commitStats0.committedInstType::SimdShift            0      0.00%     74.39% # Class of committed instruction. (Count)
board.processor.cores3.core.commitStats0.committedInstType::SimdShiftAcc            0      0.00%     74.39% # Class of committed instruction. (Count)
board.processor.cores3.core.commitStats0.committedInstType::SimdDiv            0      0.00%     74.39% # Class of committed instruction. (Count)
board.processor.cores3.core.commitStats0.committedInstType::SimdSqrt            0      0.00%     74.39% # Class of committed instruction. (Count)
board.processor.cores3.core.commitStats0.committedInstType::SimdFloatAdd            0      0.00%     74.39% # Class of committed instruction. (Count)
board.processor.cores3.core.commitStats0.committedInstType::SimdFloatAlu            0      0.00%     74.39% # Class of committed instruction. (Count)
board.processor.cores3.core.commitStats0.committedInstType::SimdFloatCmp            0      0.00%     74.39% # Class of committed instruction. (Count)
board.processor.cores3.core.commitStats0.committedInstType::SimdFloatCvt            0      0.00%     74.39% # Class of committed instruction. (Count)
board.processor.cores3.core.commitStats0.committedInstType::SimdFloatDiv            0      0.00%     74.39% # Class of committed instruction. (Count)
board.processor.cores3.core.commitStats0.committedInstType::SimdFloatMisc            0      0.00%     74.39% # Class of committed instruction. (Count)
board.processor.cores3.core.commitStats0.committedInstType::SimdFloatMult            0      0.00%     74.39% # Class of committed instruction. (Count)
board.processor.cores3.core.commitStats0.committedInstType::SimdFloatMultAcc            0      0.00%     74.39% # Class of committed instruction. (Count)
board.processor.cores3.core.commitStats0.committedInstType::SimdFloatMatMultAcc            0      0.00%     74.39% # Class of committed instruction. (Count)
board.processor.cores3.core.commitStats0.committedInstType::SimdFloatSqrt            0      0.00%     74.39% # Class of committed instruction. (Count)
board.processor.cores3.core.commitStats0.committedInstType::SimdReduceAdd            0      0.00%     74.39% # Class of committed instruction. (Count)
board.processor.cores3.core.commitStats0.committedInstType::SimdReduceAlu            0      0.00%     74.39% # Class of committed instruction. (Count)
board.processor.cores3.core.commitStats0.committedInstType::SimdReduceCmp            0      0.00%     74.39% # Class of committed instruction. (Count)
board.processor.cores3.core.commitStats0.committedInstType::SimdFloatReduceAdd            0      0.00%     74.39% # Class of committed instruction. (Count)
board.processor.cores3.core.commitStats0.committedInstType::SimdFloatReduceCmp            0      0.00%     74.39% # Class of committed instruction. (Count)
board.processor.cores3.core.commitStats0.committedInstType::SimdAes            0      0.00%     74.39% # Class of committed instruction. (Count)
board.processor.cores3.core.commitStats0.committedInstType::SimdAesMix            0      0.00%     74.39% # Class of committed instruction. (Count)
board.processor.cores3.core.commitStats0.committedInstType::SimdSha1Hash            0      0.00%     74.39% # Class of committed instruction. (Count)
board.processor.cores3.core.commitStats0.committedInstType::SimdSha1Hash2            0      0.00%     74.39% # Class of committed instruction. (Count)
board.processor.cores3.core.commitStats0.committedInstType::SimdSha256Hash            0      0.00%     74.39% # Class of committed instruction. (Count)
board.processor.cores3.core.commitStats0.committedInstType::SimdSha256Hash2            0      0.00%     74.39% # Class of committed instruction. (Count)
board.processor.cores3.core.commitStats0.committedInstType::SimdShaSigma2            0      0.00%     74.39% # Class of committed instruction. (Count)
board.processor.cores3.core.commitStats0.committedInstType::SimdShaSigma3            0      0.00%     74.39% # Class of committed instruction. (Count)
board.processor.cores3.core.commitStats0.committedInstType::SimdPredAlu            0      0.00%     74.39% # Class of committed instruction. (Count)
board.processor.cores3.core.commitStats0.committedInstType::Matrix            0      0.00%     74.39% # Class of committed instruction. (Count)
board.processor.cores3.core.commitStats0.committedInstType::MatrixMov            0      0.00%     74.39% # Class of committed instruction. (Count)
board.processor.cores3.core.commitStats0.committedInstType::MatrixOP            0      0.00%     74.39% # Class of committed instruction. (Count)
board.processor.cores3.core.commitStats0.committedInstType::MemRead       579335      4.01%     78.40% # Class of committed instruction. (Count)
board.processor.cores3.core.commitStats0.committedInstType::MemWrite       237392      1.64%     80.04% # Class of committed instruction. (Count)
board.processor.cores3.core.commitStats0.committedInstType::FloatMemRead      2097200     14.51%     94.56% # Class of committed instruction. (Count)
board.processor.cores3.core.commitStats0.committedInstType::FloatMemWrite       786764      5.44%    100.00% # Class of committed instruction. (Count)
board.processor.cores3.core.commitStats0.committedInstType::IprAccess            0      0.00%    100.00% # Class of committed instruction. (Count)
board.processor.cores3.core.commitStats0.committedInstType::InstPrefetch            0      0.00%    100.00% # Class of committed instruction. (Count)
board.processor.cores3.core.commitStats0.committedInstType::VectorUnitStrideLoad            0      0.00%    100.00% # Class of committed instruction. (Count)
board.processor.cores3.core.commitStats0.committedInstType::VectorUnitStrideStore            0      0.00%    100.00% # Class of committed instruction. (Count)
board.processor.cores3.core.commitStats0.committedInstType::VectorUnitStrideMaskLoad            0      0.00%    100.00% # Class of committed instruction. (Count)
board.processor.cores3.core.commitStats0.committedInstType::VectorUnitStrideMaskStore            0      0.00%    100.00% # Class of committed instruction. (Count)
board.processor.cores3.core.commitStats0.committedInstType::VectorStridedLoad            0      0.00%    100.00% # Class of committed instruction. (Count)
board.processor.cores3.core.commitStats0.committedInstType::VectorStridedStore            0      0.00%    100.00% # Class of committed instruction. (Count)
board.processor.cores3.core.commitStats0.committedInstType::VectorIndexedLoad            0      0.00%    100.00% # Class of committed instruction. (Count)
board.processor.cores3.core.commitStats0.committedInstType::VectorIndexedStore            0      0.00%    100.00% # Class of committed instruction. (Count)
board.processor.cores3.core.commitStats0.committedInstType::VectorUnitStrideFaultOnlyFirstLoad            0      0.00%    100.00% # Class of committed instruction. (Count)
board.processor.cores3.core.commitStats0.committedInstType::VectorWholeRegisterLoad            0      0.00%    100.00% # Class of committed instruction. (Count)
board.processor.cores3.core.commitStats0.committedInstType::VectorWholeRegisterStore            0      0.00%    100.00% # Class of committed instruction. (Count)
board.processor.cores3.core.commitStats0.committedInstType::VectorIntegerArith            0      0.00%    100.00% # Class of committed instruction. (Count)
board.processor.cores3.core.commitStats0.committedInstType::VectorFloatArith            0      0.00%    100.00% # Class of committed instruction. (Count)
board.processor.cores3.core.commitStats0.committedInstType::VectorFloatConvert            0      0.00%    100.00% # Class of committed instruction. (Count)
board.processor.cores3.core.commitStats0.committedInstType::VectorIntegerReduce            0      0.00%    100.00% # Class of committed instruction. (Count)
board.processor.cores3.core.commitStats0.committedInstType::VectorFloatReduce            0      0.00%    100.00% # Class of committed instruction. (Count)
board.processor.cores3.core.commitStats0.committedInstType::VectorMisc            0      0.00%    100.00% # Class of committed instruction. (Count)
board.processor.cores3.core.commitStats0.committedInstType::VectorIntegerExtension            0      0.00%    100.00% # Class of committed instruction. (Count)
board.processor.cores3.core.commitStats0.committedInstType::VectorConfig            0      0.00%    100.00% # Class of committed instruction. (Count)
board.processor.cores3.core.commitStats0.committedInstType::total     14450194                       # Class of committed instruction. (Count)
board.processor.cores3.core.commitStats0.committedControl::IsControl       861413                       # Class of control type instructions committed (Count)
board.processor.cores3.core.commitStats0.committedControl::IsDirectControl       851389                       # Class of control type instructions committed (Count)
board.processor.cores3.core.commitStats0.committedControl::IsIndirectControl         9676                       # Class of control type instructions committed (Count)
board.processor.cores3.core.commitStats0.committedControl::IsCondControl       732606                       # Class of control type instructions committed (Count)
board.processor.cores3.core.commitStats0.committedControl::IsUncondControl       128459                       # Class of control type instructions committed (Count)
board.processor.cores3.core.commitStats0.committedControl::IsCall         6887                       # Class of control type instructions committed (Count)
board.processor.cores3.core.commitStats0.committedControl::IsReturn         7882                       # Class of control type instructions committed (Count)
board.processor.cores3.core.exec_context.thread_0.numMatAluAccesses            0                       # Number of matrix alu accesses (Count)
board.processor.cores3.core.exec_context.thread_0.numCallsReturns        14769                       # Number of times a function call or return occured (Count)
board.processor.cores3.core.exec_context.thread_0.numMatInsts            0                       # Number of matrix instructions (Count)
board.processor.cores3.core.exec_context.thread_0.numIdleCycles 376564.671484                       # Number of idle cycles (Cycle)
board.processor.cores3.core.exec_context.thread_0.numBusyCycles 31325216.328516                       # Number of busy cycles (Cycle)
board.processor.cores3.core.exec_context.thread_0.notIdleFraction     0.988122                       # Percentage of non-idle cycles (Ratio)
board.processor.cores3.core.exec_context.thread_0.idleFraction     0.011878                       # Percentage of idle cycles (Ratio)
board.processor.cores3.core.executeStats0.numInsts            0                       # Number of executed instructions (Count)
board.processor.cores3.core.executeStats0.numNop            0                       # Number of nop insts executed (Count)
board.processor.cores3.core.executeStats0.numBranches            0                       # Number of branches executed (Count)
board.processor.cores3.core.executeStats0.numLoadInsts            0                       # Number of load instructions executed (Count)
board.processor.cores3.core.executeStats0.numStoreInsts      3700691                       # Number of stores executed (Count)
board.processor.cores3.core.executeStats0.instRate            0                       # Inst execution rate ((Count/Cycle))
board.processor.cores3.core.executeStats0.numFpAluAccesses      8258434                       # Number of float alu accesses (Count)
board.processor.cores3.core.executeStats0.numFpRegReads     11404626                       # Number of times the floating registers were read (Count)
board.processor.cores3.core.executeStats0.numFpRegWrites      7209526                       # Number of times the floating registers were written (Count)
board.processor.cores3.core.executeStats0.numIntAluAccesses      9221188                       # Number of integer alu accesses (Count)
board.processor.cores3.core.executeStats0.numIntRegReads     12240164                       # Number of times the integer registers were read (Count)
board.processor.cores3.core.executeStats0.numIntRegWrites      5354504                       # Number of times the integer registers were written (Count)
board.processor.cores3.core.executeStats0.numMemRefs      3700691                       # Number of memory refs (Count)
board.processor.cores3.core.executeStats0.numMiscRegReads     18758647                       # Number of times the Misc registers were read (Count)
board.processor.cores3.core.executeStats0.numMiscRegWrites     10753439                       # Number of times the Misc registers were written (Count)
board.processor.cores3.core.executeStats0.numVecAluAccesses            0                       # Number of vector alu accesses (Count)
board.processor.cores3.core.executeStats0.numDiscardedOps            0                       # Number of ops (including micro ops) which were discarded before commit (Count)
board.processor.cores3.core.fetchStats0.numInsts     14448896                       # Number of instructions fetched (thread level) (Count)
board.processor.cores3.core.fetchStats0.numOps     14450194                       # Number of ops (including micro ops) fetched (thread level) (Count)
board.processor.cores3.core.fetchStats0.fetchRate     0.455776                       # Number of inst fetches per cycle ((Count/Cycle))
board.processor.cores3.core.fetchStats0.numBranches       861413                       # Number of branches fetched (Count)
board.processor.cores3.core.fetchStats0.branchRate     0.027172                       # Number of branch fetches per cycle (Ratio)
board.processor.cores3.core.fetchStats0.numFetchSuspends            0                       # Number of times Execute suspended instruction fetching (Count)
board.processor.cores3.core.mmu.dtb.readHits      2673892                       # read hits (Count)
board.processor.cores3.core.mmu.dtb.readMisses          973                       # read misses (Count)
board.processor.cores3.core.mmu.dtb.readAccesses      2674865                       # read accesses (Count)
board.processor.cores3.core.mmu.dtb.writeHits      1025919                       # write hits (Count)
board.processor.cores3.core.mmu.dtb.writeMisses          984                       # write misses (Count)
board.processor.cores3.core.mmu.dtb.writeAccesses      1026903                       # write accesses (Count)
board.processor.cores3.core.mmu.dtb.hits      3699811                       # Total TLB (read and write) hits (Count)
board.processor.cores3.core.mmu.dtb.misses         1957                       # Total TLB (read and write) misses (Count)
board.processor.cores3.core.mmu.dtb.accesses      3701768                       # Total TLB (read and write) accesses (Count)
board.processor.cores3.core.mmu.dtb.walker.power_state.pwrStateResidencyTicks::UNDEFINED 3500202690000                       # Cumulative time (in ticks) in various power states (Tick)
board.processor.cores3.core.mmu.itb.readHits     21647136                       # read hits (Count)
board.processor.cores3.core.mmu.itb.readMisses           12                       # read misses (Count)
board.processor.cores3.core.mmu.itb.readAccesses     21647148                       # read accesses (Count)
board.processor.cores3.core.mmu.itb.writeHits            0                       # write hits (Count)
board.processor.cores3.core.mmu.itb.writeMisses            0                       # write misses (Count)
board.processor.cores3.core.mmu.itb.writeAccesses            0                       # write accesses (Count)
board.processor.cores3.core.mmu.itb.hits     21647136                       # Total TLB (read and write) hits (Count)
board.processor.cores3.core.mmu.itb.misses           12                       # Total TLB (read and write) misses (Count)
board.processor.cores3.core.mmu.itb.accesses     21647148                       # Total TLB (read and write) accesses (Count)
board.processor.cores3.core.mmu.itb.walker.power_state.pwrStateResidencyTicks::UNDEFINED 3500202690000                       # Cumulative time (in ticks) in various power states (Tick)
board.processor.cores3.core.power_state.numTransitions            3                       # Number of power state transitions (Count)
board.processor.cores3.core.power_state.ticksClkGated::samples            2                       # Distribution of time spent in the clock gated state (Tick)
board.processor.cores3.core.power_state.ticksClkGated::mean   1932821000                       # Distribution of time spent in the clock gated state (Tick)
board.processor.cores3.core.power_state.ticksClkGated::stdev 2562693567.949161                       # Distribution of time spent in the clock gated state (Tick)
board.processor.cores3.core.power_state.ticksClkGated::1000-5e+10            2    100.00%    100.00% # Distribution of time spent in the clock gated state (Tick)
board.processor.cores3.core.power_state.ticksClkGated::min_value    120723000                       # Distribution of time spent in the clock gated state (Tick)
board.processor.cores3.core.power_state.ticksClkGated::max_value   3744919000                       # Distribution of time spent in the clock gated state (Tick)
board.processor.cores3.core.power_state.ticksClkGated::total            2                       # Distribution of time spent in the clock gated state (Tick)
board.processor.cores3.core.power_state.pwrStateResidencyTicks::ON  27836139000                       # Cumulative time (in ticks) in various power states (Tick)
board.processor.cores3.core.power_state.pwrStateResidencyTicks::CLK_GATED   3865642000                       # Cumulative time (in ticks) in various power states (Tick)
board.processor.cores3.core.thread_0.numInsts            0                       # Number of Instructions committed (Count)
board.processor.cores3.core.thread_0.numOps            0                       # Number of Ops committed (Count)
board.processor.cores3.core.thread_0.numMemRefs            0                       # Number of Memory References (Count)
board.rng.power_state.pwrStateResidencyTicks::UNDEFINED 3500202690000                       # Cumulative time (in ticks) in various power states (Tick)
board.workload.inst.arm                             0                       # number of arm instructions executed (Count)
board.workload.inst.quiesce                         4                       # number of quiesce instructions executed (Count)

---------- End Simulation Statistics   ----------


