self exe links to: /home/ubuntu/LAB2/apps/HS_N/hotspot3d.gpu
self exe links to: /home/ubuntu/LAB2/apps/HS_N/hotspot3d.gpu
10.0


        *** GPGPU-Sim Simulator Version 4.2.0  [build gpgpu-sim_git-commit-a4ce3fe_modified_0.0] ***


GPGPU-Sim PTX: simulation mode 0 (can change with PTX_SIM_MODE_FUNC environment variable:
               1=functional simulation only, 0=detailed performance simulator)
GPGPU-Sim PTX: overriding embedded ptx with ptx file (PTX_SIM_USE_PTX_FILE is set)
GPGPU-Sim: Configuration options:

-save_embedded_ptx                      0 # saves ptx files embedded in binary as <n>.ptx
-keep                                   0 # keep intermediate files created by GPGPU-Sim when interfacing with external programs
-gpgpu_ptx_save_converted_ptxplus                    0 # Saved converted ptxplus to a file
-gpgpu_occupancy_sm_number                   20 # The SM number to pass to ptxas when getting register usage for computing GPU occupancy. This parameter is required in the config.
-ptx_opcode_latency_int      4,13,4,5,145,32 # Opcode latencies for integers <ADD,MAX,MUL,MAD,DIV,SHFL>Default 1,1,19,25,145,32
-ptx_opcode_latency_fp          4,13,4,5,39 # Opcode latencies for single precision floating points <ADD,MAX,MUL,MAD,DIV>Default 1,1,1,1,30
-ptx_opcode_latency_dp         8,19,8,8,330 # Opcode latencies for double precision floating points <ADD,MAX,MUL,MAD,DIV>Default 8,8,8,8,335
-ptx_opcode_latency_sfu                    8 # Opcode latencies for SFU instructionsDefault 8
-ptx_opcode_latency_tesnor                   64 # Opcode latencies for Tensor instructionsDefault 64
-ptx_opcode_initiation_int          1,2,2,1,8,4 # Opcode initiation intervals for integers <ADD,MAX,MUL,MAD,DIV,SHFL>Default 1,1,4,4,32,4
-ptx_opcode_initiation_fp            1,2,1,1,4 # Opcode initiation intervals for single precision floating points <ADD,MAX,MUL,MAD,DIV>Default 1,1,1,1,5
-ptx_opcode_initiation_dp         8,16,8,8,130 # Opcode initiation intervals for double precision floating points <ADD,MAX,MUL,MAD,DIV>Default 8,8,8,8,130
-ptx_opcode_initiation_sfu                    8 # Opcode initiation intervals for sfu instructionsDefault 8
-ptx_opcode_initiation_tensor                   64 # Opcode initiation intervals for tensor instructionsDefault 64
-cdp_latency         7200,8000,100,12000,1600 # CDP API latency <cudaStreamCreateWithFlags, cudaGetParameterBufferV2_init_perWarp, cudaGetParameterBufferV2_perKernel, cudaLaunchDeviceV2_init_perWarp, cudaLaunchDevicV2_perKernel>Default 7200,8000,100,12000,1600
-network_mode                           1 # Interconnection network mode
-inter_config_file   config_fermi_islip.icnt # Interconnection network config file
-icnt_in_buffer_limit                   64 # in_buffer_limit
-icnt_out_buffer_limit                   64 # out_buffer_limit
-icnt_subnets                           2 # subnets
-icnt_arbiter_algo                      1 # arbiter_algo
-icnt_verbose                           0 # inct_verbose
-icnt_grant_cycles                      1 # grant_cycles
-gpgpu_ptx_use_cuobjdump                    1 # Use cuobjdump to extract ptx and sass from binaries
-gpgpu_experimental_lib_support                    0 # Try to extract code from cuda libraries [Broken because of unknown cudaGetExportTable]
-checkpoint_option                      0 #  checkpointing flag (0 = no checkpoint)
-checkpoint_kernel                      1 #  checkpointing during execution of which kernel (1- 1st kernel)
-checkpoint_CTA                         0 #  checkpointing after # of CTA (< less than total CTA)
-resume_option                          0 #  resume flag (0 = no resume)
-resume_kernel                          0 #  Resume from which kernel (1= 1st kernel)
-resume_CTA                             0 #  resume from which CTA 
-checkpoint_CTA_t                       0 #  resume from which CTA 
-checkpoint_insn_Y                      0 #  resume from which CTA 
-gpgpu_ptx_convert_to_ptxplus                    0 # Convert SASS (native ISA) to ptxplus and run ptxplus
-gpgpu_ptx_force_max_capability                   20 # Force maximum compute capability
-gpgpu_ptx_inst_debug_to_file                    0 # Dump executed instructions' debug information to file
-gpgpu_ptx_inst_debug_file       inst_debug.txt # Executed instructions' debug output file
-gpgpu_ptx_inst_debug_thread_uid                    1 # Thread UID for executed instructions' debug output
-gpgpu_simd_model                       1 # 1 = post-dominator
-gpgpu_shader_core_pipeline              1536:32 # shader core pipeline config, i.e., {<nthread>:<warpsize>}
-gpgpu_tex_cache:l1  N:4:128:24,L:R:m:N:L,T:128:4,128:2 # per-shader L1 texture cache  (READ-ONLY) config  {<nsets>:<bsize>:<assoc>,<rep>:<wr>:<alloc>:<wr_alloc>,<mshr>:<N>:<merge>,<mq>:<rf>}
-gpgpu_const_cache:l1 N:64:64:2,L:R:f:N:L,S:2:32,4 # per-shader L1 constant memory cache  (READ-ONLY) config  {<nsets>:<bsize>:<assoc>,<rep>:<wr>:<alloc>:<wr_alloc>,<mshr>:<N>:<merge>,<mq>} 
-gpgpu_cache:il1     N:4:128:4,L:R:f:N:L,S:2:32,4 # shader L1 instruction cache config  {<nsets>:<bsize>:<assoc>,<rep>:<wr>:<alloc>:<wr_alloc>,<mshr>:<N>:<merge>,<mq>} 
-gpgpu_cache:dl1     N:32:128:4,L:L:m:N:H,S:64:8,8 # per-shader L1 data cache config  {<nsets>:<bsize>:<assoc>,<rep>:<wr>:<alloc>:<wr_alloc>,<mshr>:<N>:<merge>,<mq> | none}
-gpgpu_l1_cache_write_ratio                    0 # L1D write ratio
-gpgpu_l1_banks                         1 # The number of L1 cache banks
-gpgpu_l1_banks_byte_interleaving                   32 # l1 banks byte interleaving granularity
-gpgpu_l1_banks_hashing_function                    0 # l1 banks hashing function
-gpgpu_l1_latency                      35 # L1 Hit Latency
-gpgpu_smem_latency                    26 # smem Latency
-gpgpu_cache:dl1PrefL1                 none # per-shader L1 data cache config  {<nsets>:<bsize>:<assoc>,<rep>:<wr>:<alloc>:<wr_alloc>,<mshr>:<N>:<merge>,<mq> | none}
-gpgpu_cache:dl1PrefShared                 none # per-shader L1 data cache config  {<nsets>:<bsize>:<assoc>,<rep>:<wr>:<alloc>:<wr_alloc>,<mshr>:<N>:<merge>,<mq> | none}
-gpgpu_gmem_skip_L1D                    0 # global memory access skip L1D cache (implements -Xptxas -dlcm=cg, default=no skip)
-gpgpu_perfect_mem                      0 # enable perfect memory mode (no cache miss)
-n_regfile_gating_group                    4 # group of lanes that should be read/written together)
-gpgpu_clock_gated_reg_file                    0 # enable clock gated reg file for power calculations
-gpgpu_clock_gated_lanes                    0 # enable clock gated lanes for power calculations
-gpgpu_shader_registers                32768 # Number of registers per shader core. Limits number of concurrent CTAs. (default 8192)
-gpgpu_registers_per_block                 8192 # Maximum number of registers per CTA. (default 8192)
-gpgpu_ignore_resources_limitation                    0 # gpgpu_ignore_resources_limitation (default 0)
-gpgpu_shader_cta                       8 # Maximum number of concurrent CTAs in shader (default 32)
-gpgpu_num_cta_barriers                   16 # Maximum number of named barriers per CTA (default 16)
-gpgpu_n_clusters                      15 # number of processing clusters
-gpgpu_n_cores_per_cluster                    1 # number of simd cores per cluster
-gpgpu_n_cluster_ejection_buffer_size                   32 # number of packets in ejection buffer
-gpgpu_n_ldst_response_buffer_size                    2 # number of response packets in ld/st unit ejection buffer
-gpgpu_shmem_per_block                49152 # Size of shared memory per thread block or CTA (default 48kB)
-gpgpu_shmem_size                   49152 # Size of shared memory per shader core (default 16kB)
-gpgpu_shmem_option                     0 # Option list of shared memory sizes
-gpgpu_unified_l1d_size                    0 # Size of unified data cache(L1D + shared memory) in KB
-gpgpu_adaptive_cache_config                    0 # adaptive_cache_config
-gpgpu_shmem_sizeDefault                49152 # Size of shared memory per shader core (default 16kB)
-gpgpu_shmem_size_PrefL1                16384 # Size of shared memory per shader core (default 16kB)
-gpgpu_shmem_size_PrefShared                16384 # Size of shared memory per shader core (default 16kB)
-gpgpu_shmem_num_banks                   32 # Number of banks in the shared memory in each shader core (default 16)
-gpgpu_shmem_limited_broadcast                    0 # Limit shared memory to do one broadcast per cycle (default on)
-gpgpu_shmem_warp_parts                    1 # Number of portions a warp is divided into for shared memory bank conflict check 
-gpgpu_mem_unit_ports                    1 # The number of memory transactions allowed per core cycle
-gpgpu_shmem_warp_parts                    1 # Number of portions a warp is divided into for shared memory bank conflict check 
-gpgpu_warpdistro_shader                   -1 # Specify which shader core to collect the warp size distribution from
-gpgpu_warp_issue_shader                    0 # Specify which shader core to collect the warp issue distribution from
-gpgpu_local_mem_map                    1 # Mapping from local memory space address to simulated GPU physical address space (default = enabled)
-gpgpu_num_reg_banks                   16 # Number of register banks (default = 8)
-gpgpu_reg_bank_use_warp_id                    0 # Use warp ID in mapping registers to banks (default = off)
-gpgpu_sub_core_model                    0 # Sub Core Volta/Pascal model (default = off)
-gpgpu_enable_specialized_operand_collector                    1 # enable_specialized_operand_collector
-gpgpu_operand_collector_num_units_sp                    6 # number of collector units (default = 4)
-gpgpu_operand_collector_num_units_dp                    0 # number of collector units (default = 0)
-gpgpu_operand_collector_num_units_sfu                    8 # number of collector units (default = 4)
-gpgpu_operand_collector_num_units_int                    0 # number of collector units (default = 0)
-gpgpu_operand_collector_num_units_tensor_core                    4 # number of collector units (default = 4)
-gpgpu_operand_collector_num_units_mem                    2 # number of collector units (default = 2)
-gpgpu_operand_collector_num_units_gen                    0 # number of collector units (default = 0)
-gpgpu_operand_collector_num_in_ports_sp                    2 # number of collector unit in ports (default = 1)
-gpgpu_operand_collector_num_in_ports_dp                    0 # number of collector unit in ports (default = 0)
-gpgpu_operand_collector_num_in_ports_sfu                    1 # number of collector unit in ports (default = 1)
-gpgpu_operand_collector_num_in_ports_int                    0 # number of collector unit in ports (default = 0)
-gpgpu_operand_collector_num_in_ports_tensor_core                    1 # number of collector unit in ports (default = 1)
-gpgpu_operand_collector_num_in_ports_mem                    1 # number of collector unit in ports (default = 1)
-gpgpu_operand_collector_num_in_ports_gen                    0 # number of collector unit in ports (default = 0)
-gpgpu_operand_collector_num_out_ports_sp                    2 # number of collector unit in ports (default = 1)
-gpgpu_operand_collector_num_out_ports_dp                    0 # number of collector unit in ports (default = 0)
-gpgpu_operand_collector_num_out_ports_sfu                    1 # number of collector unit in ports (default = 1)
-gpgpu_operand_collector_num_out_ports_int                    0 # number of collector unit in ports (default = 0)
-gpgpu_operand_collector_num_out_ports_tensor_core                    1 # number of collector unit in ports (default = 1)
-gpgpu_operand_collector_num_out_ports_mem                    1 # number of collector unit in ports (default = 1)
-gpgpu_operand_collector_num_out_ports_gen                    0 # number of collector unit in ports (default = 0)
-gpgpu_coalesce_arch                   20 # Coalescing arch (GT200 = 13, Fermi = 20)
-gpgpu_num_sched_per_core                    2 # Number of warp schedulers per core
-gpgpu_max_insn_issue_per_warp                    1 # Max number of instructions that can be issued per warp in one cycle by scheduler (either 1 or 2)
-gpgpu_dual_issue_diff_exec_units                    1 # should dual issue use two different execution unit resources (Default = 1)
-gpgpu_simt_core_sim_order                    1 # Select the simulation order of cores in a cluster (0=Fix, 1=Round-Robin)
-gpgpu_pipeline_widths 2,0,0,1,1,2,0,0,1,1,2 # Pipeline widths ID_OC_SP,ID_OC_DP,ID_OC_INT,ID_OC_SFU,ID_OC_MEM,OC_EX_SP,OC_EX_DP,OC_EX_INT,OC_EX_SFU,OC_EX_MEM,EX_WB,ID_OC_TENSOR_CORE,OC_EX_TENSOR_CORE
-gpgpu_tensor_core_avail                    0 # Tensor Core Available (default=0)
-gpgpu_num_sp_units                     2 # Number of SP units (default=1)
-gpgpu_num_dp_units                     0 # Number of DP units (default=0)
-gpgpu_num_int_units                    0 # Number of INT units (default=0)
-gpgpu_num_sfu_units                    1 # Number of SF units (default=1)
-gpgpu_num_tensor_core_units                    0 # Number of tensor_core units (default=1)
-gpgpu_num_mem_units                    1 # Number if ldst units (default=1) WARNING: not hooked up to anything
-gpgpu_scheduler                      gto # Scheduler configuration: < lrr | gto | two_level_active > If two_level_active:<num_active_warps>:<inner_prioritization>:<outer_prioritization>For complete list of prioritization values see shader.h enum scheduler_prioritization_typeDefault: gto
-gpgpu_concurrent_kernel_sm                    0 # Support concurrent kernels on a SM (default = disabled)
-gpgpu_perfect_inst_const_cache                    0 # perfect inst and const cache mode, so all inst and const hits in the cache(default = disabled)
-gpgpu_inst_fetch_throughput                    1 # the number of fetched intruction per warp each cycle
-gpgpu_reg_file_port_throughput                    1 # the number ports of the register file
-specialized_unit_1         0,4,4,4,4,BRA # specialized unit config {<enabled>,<num_units>:<latency>:<initiation>,<ID_OC_SPEC>:<OC_EX_SPEC>,<NAME>}
-specialized_unit_2         0,4,4,4,4,BRA # specialized unit config {<enabled>,<num_units>:<latency>:<initiation>,<ID_OC_SPEC>:<OC_EX_SPEC>,<NAME>}
-specialized_unit_3         0,4,4,4,4,BRA # specialized unit config {<enabled>,<num_units>:<latency>:<initiation>,<ID_OC_SPEC>:<OC_EX_SPEC>,<NAME>}
-specialized_unit_4         0,4,4,4,4,BRA # specialized unit config {<enabled>,<num_units>:<latency>:<initiation>,<ID_OC_SPEC>:<OC_EX_SPEC>,<NAME>}
-specialized_unit_5         0,4,4,4,4,BRA # specialized unit config {<enabled>,<num_units>:<latency>:<initiation>,<ID_OC_SPEC>:<OC_EX_SPEC>,<NAME>}
-specialized_unit_6         0,4,4,4,4,BRA # specialized unit config {<enabled>,<num_units>:<latency>:<initiation>,<ID_OC_SPEC>:<OC_EX_SPEC>,<NAME>}
-specialized_unit_7         0,4,4,4,4,BRA # specialized unit config {<enabled>,<num_units>:<latency>:<initiation>,<ID_OC_SPEC>:<OC_EX_SPEC>,<NAME>}
-specialized_unit_8         0,4,4,4,4,BRA # specialized unit config {<enabled>,<num_units>:<latency>:<initiation>,<ID_OC_SPEC>:<OC_EX_SPEC>,<NAME>}
-gpgpu_perf_sim_memcpy                    1 # Fill the L2 cache on memcpy
-gpgpu_simple_dram_model                    0 # simple_dram_model with fixed latency and BW
-gpgpu_dram_scheduler                    1 # 0 = fifo, 1 = FR-FCFS (defaul)
-gpgpu_dram_partition_queues          64:64:64:64 # i2$:$2d:d2$:$2i
-l2_ideal                               0 # Use a ideal L2 cache that always hit
-gpgpu_cache:dl2     S:64:128:8,L:B:m:L:L,A:256:4,4:0,32 # unified banked L2 data cache config  {<nsets>:<bsize>:<assoc>,<rep>:<wr>:<alloc>:<wr_alloc>,<mshr>:<N>:<merge>,<mq>}
-gpgpu_cache:dl2_texture_only                    0 # L2 cache used for texture only
-gpgpu_n_mem                            6 # number of memory modules (e.g. memory controllers) in gpu
-gpgpu_n_sub_partition_per_mchannel                    2 # number of memory subpartition in each memory module
-gpgpu_n_mem_per_ctrlr                    2 # number of memory chips per memory controller
-gpgpu_memlatency_stat                   14 # track and display latency statistics 0x2 enables MC, 0x4 enables queue logs
-gpgpu_frfcfs_dram_sched_queue_size                   64 # 0 = unlimited (default); # entries per chip
-gpgpu_dram_return_queue_size                  116 # 0 = unlimited (default); # entries per chip
-gpgpu_dram_buswidth                    4 # default = 4 bytes (8 bytes per cycle at DDR)
-gpgpu_dram_burst_length                    8 # Burst length of each DRAM request (default = 4 data bus cycle)
-dram_data_command_freq_ratio                    4 # Frequency ratio between DRAM data bus and command bus (default = 2 times, i.e. DDR)
-gpgpu_dram_timing_opt nbk=16:CCD=2:RRD=6:RCD=12:RAS=28:RP=12:RC=40: CL=12:WL=4:CDLR=5:WR=12:nbkgrp=4:CCDL=3:RTPL=2 # DRAM timing parameters = {nbk:tCCD:tRRD:tRCD:tRAS:tRP:tRC:CL:WL:tCDLR:tWR:nbkgrp:tCCDL:tRTPL}
-gpgpu_l2_rop_latency                  120 # ROP queue latency (default 85)
-dram_latency                         100 # DRAM latency (default 30)
-dram_dual_bus_interface                    0 # dual_bus_interface (default = 0) 
-dram_bnk_indexing_policy                    0 # dram_bnk_indexing_policy (0 = normal indexing, 1 = Xoring with the higher bits) (Default = 0)
-dram_bnkgrp_indexing_policy                    1 # dram_bnkgrp_indexing_policy (0 = take higher bits, 1 = take lower bits) (Default = 0)
-dram_seperate_write_queue_enable                    0 # Seperate_Write_Queue_Enable
-dram_write_queue_size             32:28:16 # Write_Queue_Size
-dram_elimnate_rw_turnaround                    0 # elimnate_rw_turnaround i.e set tWTR and tRTW = 0
-icnt_flit_size                        40 # icnt_flit_size
-SST_mode                               0 # SST mode
-gpgpu_mem_addr_mapping dramid@8;00000000.00000000.00000000.00000000.0000RRRR.RRRRRRRR.BBBCCCCB.CCSSSSSS # mapping memory address to dram model {dramid@<start bit>;<memory address map>}
-gpgpu_mem_addr_test                    0 # run sweep test to check address mapping for aliased address
-gpgpu_mem_address_mask                    1 # 0 = old addressing mask, 1 = new addressing mask, 2 = new add. mask + flipped bank sel and chip sel bits
-gpgpu_memory_partition_indexing                    0 # 0 = no indexing, 1 = bitwise xoring, 2 = IPoly, 3 = custom indexing
-accelwattch_xml_file gpuwattch_gtx480.xml # AccelWattch XML file
-power_simulation_enabled                    1 # Turn on power simulator (1=On, 0=Off)
-power_per_cycle_dump                    0 # Dump detailed power output each cycle
-hw_perf_file_name            hw_perf.csv # Hardware Performance Statistics file
-hw_perf_bench_name                       # Kernel Name in Hardware Performance Statistics file
-power_simulation_mode                    0 # Switch performance counter input for power simulation (0=Sim, 1=HW, 2=HW-Sim Hybrid)
-dvfs_enabled                           0 # Turn on DVFS for power model
-aggregate_power_stats                    0 # Accumulate power across all kernels
-accelwattch_hybrid_perfsim_L1_RH                    0 # Get L1 Read Hits for Accelwattch-Hybrid from Accel-Sim
-accelwattch_hybrid_perfsim_L1_RM                    0 # Get L1 Read Misses for Accelwattch-Hybrid from Accel-Sim
-accelwattch_hybrid_perfsim_L1_WH                    0 # Get L1 Write Hits for Accelwattch-Hybrid from Accel-Sim
-accelwattch_hybrid_perfsim_L1_WM                    0 # Get L1 Write Misses for Accelwattch-Hybrid from Accel-Sim
-accelwattch_hybrid_perfsim_L2_RH                    0 # Get L2 Read Hits for Accelwattch-Hybrid from Accel-Sim
-accelwattch_hybrid_perfsim_L2_RM                    0 # Get L2 Read Misses for Accelwattch-Hybrid from Accel-Sim
-accelwattch_hybrid_perfsim_L2_WH                    0 # Get L2 Write Hits for Accelwattch-Hybrid from Accel-Sim
-accelwattch_hybrid_perfsim_L2_WM                    0 # Get L2 Write Misses for Accelwattch-Hybrid from Accel-Sim
-accelwattch_hybrid_perfsim_CC_ACC                    0 # Get Constant Cache Acesses for Accelwattch-Hybrid from Accel-Sim
-accelwattch_hybrid_perfsim_SHARED_ACC                    0 # Get Shared Memory Acesses for Accelwattch-Hybrid from Accel-Sim
-accelwattch_hybrid_perfsim_DRAM_RD                    0 # Get DRAM Reads for Accelwattch-Hybrid from Accel-Sim
-accelwattch_hybrid_perfsim_DRAM_WR                    0 # Get DRAM Writes for Accelwattch-Hybrid from Accel-Sim
-accelwattch_hybrid_perfsim_NOC                    0 # Get Interconnect Acesses for Accelwattch-Hybrid from Accel-Sim
-accelwattch_hybrid_perfsim_PIPE_DUTY                    0 # Get Pipeline Duty Cycle Acesses for Accelwattch-Hybrid from Accel-Sim
-accelwattch_hybrid_perfsim_NUM_SM_IDLE                    0 # Get Number of Idle SMs for Accelwattch-Hybrid from Accel-Sim
-accelwattch_hybrid_perfsim_CYCLES                    0 # Get Executed Cycles for Accelwattch-Hybrid from Accel-Sim
-accelwattch_hybrid_perfsim_VOLTAGE                    0 # Get Chip Voltage for Accelwattch-Hybrid from Accel-Sim
-power_trace_enabled                    0 # produce a file for the power trace (1=On, 0=Off)
-power_trace_zlevel                     6 # Compression level of the power trace output log (0=no comp, 9=highest)
-steady_power_levels_enabled                    0 # produce a file for the steady power levels (1=On, 0=Off)
-steady_state_definition                  8:4 # allowed deviation:number of samples
-gpgpu_max_cycle                        0 # terminates gpu simulation early (0 = no limit)
-gpgpu_max_insn                         0 # terminates gpu simulation early (0 = no limit)
-gpgpu_max_cta                          0 # terminates gpu simulation early (0 = no limit)
-gpgpu_max_completed_cta                    0 # terminates gpu simulation early (0 = no limit)
-gpgpu_runtime_stat                   500 # display runtime statistics such as dram utilization {<freq>:<flag>}
-liveness_message_freq                    1 # Minimum number of seconds between simulation liveness messages (0 = always print)
-gpgpu_compute_capability_major                    2 # Major compute capability version number
-gpgpu_compute_capability_minor                    0 # Minor compute capability version number
-gpgpu_flush_l1_cache                    1 # Flush L1 cache at the end of each kernel call
-gpgpu_flush_l2_cache                    0 # Flush L2 cache at the end of each kernel call
-gpgpu_deadlock_detect                    1 # Stop the simulation at deadlock (1=on (default), 0=off)
-gpgpu_ptx_instruction_classification                    0 # if enabled will classify ptx instruction types per kernel (Max 255 kernels now)
-gpgpu_ptx_sim_mode                     0 # Select between Performance (default) or Functional simulation (1)
-gpgpu_clock_domains 700.0:700.0:700.0:924.0 # Clock Domain Frequencies in MhZ {<Core Clock>:<ICNT Clock>:<L2 Clock>:<DRAM Clock>}
-gpgpu_max_concurrent_kernel                   32 # maximum kernels that can run concurrently on GPU, set this value according to max resident grids for your compute capability
-gpgpu_cflog_interval                    0 # Interval between each snapshot in control flow logger
-visualizer_enabled                     0 # Turn on visualizer output (1=On, 0=Off)
-visualizer_outputfile                 NULL # Specifies the output log file for visualizer
-visualizer_zlevel                      6 # Compression level of the visualizer output log (0=no comp, 9=highest)
-gpgpu_stack_size_limit                 1024 # GPU thread stack size
-gpgpu_heap_size_limit              8388608 # GPU malloc heap size 
-gpgpu_runtime_sync_depth_limit                    2 # GPU device runtime synchronize depth
-gpgpu_runtime_pending_launch_count_limit                 2048 # GPU device runtime pending launch count
-trace_enabled                          0 # Turn on traces
-trace_components                    none # comma seperated list of traces to enable. Complete list found in trace_streams.tup. Default none
-trace_sampling_core                    0 # The core which is printed using CORE_DPRINTF. Default 0
-trace_sampling_memory_partition                   -1 # The memory partition which is printed using MEMPART_DPRINTF. Default -1 (i.e. all)
-enable_ptx_file_line_stats                    1 # Turn on PTX source line statistic profiling. (1 = On)
-ptx_line_stats_filename gpgpu_inst_stats.txt # Output file for PTX source line statistics.
-gpgpu_kernel_launch_latency                    0 # Kernel launch latency in cycles. Default: 0
-gpgpu_cdp_enabled                      0 # Turn on CDP
-gpgpu_TB_launch_latency                    0 # thread block launch latency in cycles. Default: 0
DRAM Timing Options:
nbk                                    16 # number of banks
CCD                                     2 # column to column delay
RRD                                     6 # minimal delay between activation of rows in different banks
RCD                                    12 # row to column delay
RAS                                    28 # time needed to activate row
RP                                     12 # time needed to precharge (deactivate) row
RC                                     40 # row cycle time
CDLR                                    5 # switching from write to read (changes tWTR)
WR                                     12 # last data-in to row precharge
CL                                     12 # CAS latency
WL                                      4 # Write latency
nbkgrp                                  4 # number of bank groups
CCDL                                    3 # column to column delay between accesses to different bank groups
RTPL                                    2 # read to precharge delay between accesses to different bank groups
Total number of memory sub partition = 12
addr_dec_mask[CHIP]  = 0000000000000000 	high:64 low:0
addr_dec_mask[BK]    = 000000000000e100 	high:16 low:8
addr_dec_mask[ROW]   = 000000000fff0000 	high:28 low:16
addr_dec_mask[COL]   = 0000000000001eff 	high:13 low:0
addr_dec_mask[BURST] = 000000000000003f 	high:6 low:0
sub_partition_id_mask = 0000000000000100
GPGPU-Sim uArch: clock freqs: 700000000.000000:700000000.000000:700000000.000000:924000000.000000
GPGPU-Sim uArch: clock periods: 0.00000000142857142857:0.00000000142857142857:0.00000000142857142857:0.00000000108225108225
*** Initializing Memory Statistics ***
GPGPU-Sim uArch: interconnect node map (shaderID+MemID to icntID)
GPGPU-Sim uArch: Memory nodes ID start from index: 15
GPGPU-Sim uArch:    0   1   2   3   4
GPGPU-Sim uArch:    5   6   7   8   9
GPGPU-Sim uArch:   10  11  12  13  14
GPGPU-Sim uArch:   15  16  17  18  19
GPGPU-Sim uArch:   20  21  22  23  24
GPGPU-Sim uArch:   25  26
GPGPU-Sim uArch: interconnect node reverse map (icntID to shaderID+MemID)
GPGPU-Sim uArch: Memory nodes start from ID: 15
GPGPU-Sim uArch:    0   1   2   3   4
GPGPU-Sim uArch:    5   6   7   8   9
GPGPU-Sim uArch:   10  11  12  13  14
GPGPU-Sim uArch:   15  16  17  18  19
GPGPU-Sim uArch:   20  21  22  23  24
GPGPU-Sim uArch:   25  26
2dfed8f4b02b3e27d54add6a6bde60e2  /home/ubuntu/LAB2/apps/HS_N/hotspot3d.gpu
Extracting PTX file and ptxas options    1: hotspot3d.1.sm_30.ptx -arch=sm_30
GPGPU-Sim uArch: performance model initialization complete.
GPGPU-Sim PTX: __cudaRegisterFatBinary, fat_cubin_handle = 1, filename=default
self exe links to: /home/ubuntu/LAB2/apps/HS_N/hotspot3d.gpu
Running md5sum using "md5sum /home/ubuntu/LAB2/apps/HS_N/hotspot3d.gpu "
self exe links to: /home/ubuntu/LAB2/apps/HS_N/hotspot3d.gpu
Extracting specific PTX file named hotspot3d.1.sm_30.ptx 
GPGPU-Sim PTX: __cudaRegisterFunction _Z11hotspotOpt1PfS_S_fiiifffffff : hostFun 0x0x576ebf307865, fat_cubin_handle = 1
GPGPU-Sim PTX: Parsing hotspot3d.1.sm_30.ptx
GPGPU-Sim PTX: instruction assembly for function '_Z11hotspotOpt1PfS_S_fiiifffffff'...   done.
GPGPU-Sim PTX: finished parsing EMBEDDED .ptx file hotspot3d.1.sm_30.ptx
GPGPU-Sim PTX: loading globals with explicit initializers... 
GPGPU-Sim PTX: finished loading globals (0 bytes total).
GPGPU-Sim PTX: loading constants with explicit initializers...  done.
GPGPU-Sim PTX: Loading PTXInfo from hotspot3d.1.sm_30.ptx
GPGPU-Sim PTX: Kernel '_Z11hotspotOpt1PfS_S_fiiifffffff' : regs=32, lmem=0, smem=0, cmem=388
GPGPU-Sim PTX: Setting up arguments for 8 bytes starting at 0x7ffcfddbeb28..
GPGPU-Sim PTX: Setting up arguments for 8 bytes starting at 0x7ffcfddbeb20..
GPGPU-Sim PTX: Setting up arguments for 8 bytes starting at 0x7ffcfddbeb18..
GPGPU-Sim PTX: Setting up arguments for 4 bytes starting at 0x7ffcfddbeb14..
GPGPU-Sim PTX: Setting up arguments for 4 bytes starting at 0x7ffcfddbeb10..
GPGPU-Sim PTX: Setting up arguments for 4 bytes starting at 0x7ffcfddbeb0c..
GPGPU-Sim PTX: Setting up arguments for 4 bytes starting at 0x7ffcfddbeb08..
GPGPU-Sim PTX: Setting up arguments for 4 bytes starting at 0x7ffcfddbeb04..
GPGPU-Sim PTX: Setting up arguments for 4 bytes starting at 0x7ffcfddbeb00..
GPGPU-Sim PTX: Setting up arguments for 4 bytes starting at 0x7ffcfddbeafc..
GPGPU-Sim PTX: Setting up arguments for 4 bytes starting at 0x7ffcfddbeaf8..
GPGPU-Sim PTX: Setting up arguments for 4 bytes starting at 0x7ffcfddbeaf4..
GPGPU-Sim PTX: Setting up arguments for 4 bytes starting at 0x7ffcfddbeaf0..
GPGPU-Sim PTX: Setting up arguments for 4 bytes starting at 0x7ffcfddbeaec..

GPGPU-Sim PTX: cudaLaunch for 0x0x576ebf307865 (mode=performance simulation) on stream 0
GPGPU-Sim PTX: finding reconvergence points for '_Z11hotspotOpt1PfS_S_fiiifffffff'...
GPGPU-Sim PTX: Finding dominators for '_Z11hotspotOpt1PfS_S_fiiifffffff'...
GPGPU-Sim PTX: Finding immediate dominators for '_Z11hotspotOpt1PfS_S_fiiifffffff'...
GPGPU-Sim PTX: Finding postdominators for '_Z11hotspotOpt1PfS_S_fiiifffffff'...
GPGPU-Sim PTX: Finding immediate postdominators for '_Z11hotspotOpt1PfS_S_fiiifffffff'...
GPGPU-Sim PTX: pre-decoding instructions for '_Z11hotspotOpt1PfS_S_fiiifffffff'...
GPGPU-Sim PTX: reconvergence points for _Z11hotspotOpt1PfS_S_fiiifffffff...
GPGPU-Sim PTX:  1 (potential) branch divergence @  PC=0x290 (hotspot3d.1.sm_30.ptx:120) bra.uni BB0_1;
GPGPU-Sim PTX:    immediate post dominator      @  PC=0x3b0 (hotspot3d.1.sm_30.ptx:160) mov.f32 %f5, %f57;
GPGPU-Sim PTX:  2 (potential) branch divergence @  PC=0x408 (hotspot3d.1.sm_30.ptx:171) @%p7 bra BB0_3;
GPGPU-Sim PTX:    immediate post dominator      @  PC=0x410 (hotspot3d.1.sm_30.ptx:173) add.s32 %r60, %r43, %r17;
GPGPU-Sim PTX: ... end of reconvergence points for _Z11hotspotOpt1PfS_S_fiiifffffff
GPGPU-Sim PTX: ... done pre-decoding instructions for '_Z11hotspotOpt1PfS_S_fiiifffffff'.
GPGPU-Sim PTX: pushing kernel '_Z11hotspotOpt1PfS_S_fiiifffffff' to stream 0, gridDim= (8,128,1) blockDim = (64,4,1) 
FLUSH L1 Cache at configuration change between kernels
GPGPU-Sim uArch: Shader 0 bind to kernel 1 '_Z11hotspotOpt1PfS_S_fiiifffffff'
GPGPU-Sim uArch: CTA/core = 4, limited by: regs
GPGPU-Sim uArch: Shader 1 bind to kernel 1 '_Z11hotspotOpt1PfS_S_fiiifffffff'
GPGPU-Sim uArch: Shader 2 bind to kernel 1 '_Z11hotspotOpt1PfS_S_fiiifffffff'
GPGPU-Sim uArch: Shader 3 bind to kernel 1 '_Z11hotspotOpt1PfS_S_fiiifffffff'
GPGPU-Sim uArch: Shader 4 bind to kernel 1 '_Z11hotspotOpt1PfS_S_fiiifffffff'
GPGPU-Sim uArch: Shader 5 bind to kernel 1 '_Z11hotspotOpt1PfS_S_fiiifffffff'
GPGPU-Sim uArch: Shader 6 bind to kernel 1 '_Z11hotspotOpt1PfS_S_fiiifffffff'
GPGPU-Sim uArch: Shader 7 bind to kernel 1 '_Z11hotspotOpt1PfS_S_fiiifffffff'
GPGPU-Sim uArch: Shader 8 bind to kernel 1 '_Z11hotspotOpt1PfS_S_fiiifffffff'
GPGPU-Sim uArch: Shader 9 bind to kernel 1 '_Z11hotspotOpt1PfS_S_fiiifffffff'
GPGPU-Sim uArch: Shader 10 bind to kernel 1 '_Z11hotspotOpt1PfS_S_fiiifffffff'
GPGPU-Sim uArch: Shader 11 bind to kernel 1 '_Z11hotspotOpt1PfS_S_fiiifffffff'
GPGPU-Sim uArch: Shader 12 bind to kernel 1 '_Z11hotspotOpt1PfS_S_fiiifffffff'
GPGPU-Sim uArch: Shader 13 bind to kernel 1 '_Z11hotspotOpt1PfS_S_fiiifffffff'
GPGPU-Sim uArch: Shader 14 bind to kernel 1 '_Z11hotspotOpt1PfS_S_fiiifffffff'
Destroy streams for kernel 1: size 0
kernel_name = _Z11hotspotOpt1PfS_S_fiiifffffff 
kernel_launch_uid = 1 
kernel_stream_id = 0
gpu_sim_cycle = 257042
gpu_sim_insn = 104595456
gpu_ipc =     406.9197
gpu_tot_sim_cycle = 257042
gpu_tot_sim_insn = 104595456
gpu_tot_ipc =     406.9197
gpu_tot_issued_cta = 1024
gpu_occupancy = 60.3843% 
gpu_tot_occupancy = 60.3843% 
max_total_param_size = 0
gpu_stall_dramfull = 263
gpu_stall_icnt2sh    = 48
partiton_level_parallism =       1.4043
partiton_level_parallism_total  =       1.4043
partiton_level_parallism_util =       1.8189
partiton_level_parallism_util_total  =       1.8189
L2_BW  =     125.8207 GB/Sec
L2_BW_total  =     125.8207 GB/Sec
gpu_total_sim_rate=123053

========= Core cache stats =========
L1I_cache:
	L1I_total_cache_accesses = 1671168
	L1I_total_cache_misses = 3242
	L1I_total_cache_miss_rate = 0.0019
	L1I_total_cache_pending_hits = 0
	L1I_total_cache_reservation_fails = 0
L1C_cache:
	L1C_total_cache_accesses = 114688
	L1C_total_cache_misses = 807
	L1C_total_cache_miss_rate = 0.0070
	L1C_total_cache_pending_hits = 0
	L1C_total_cache_reservation_fails = 4460
L1T_cache:
	L1T_total_cache_accesses = 0
	L1T_total_cache_misses = 0
	L1T_total_cache_pending_hits = 0
	L1T_total_cache_reservation_fails = 0

Total_core_cache_stats:
	Total_core_cache_stats_breakdown[GLOBAL_ACC_R][HIT] = 167556
	Total_core_cache_stats_breakdown[GLOBAL_ACC_R][HIT_RESERVED] = 53290
	Total_core_cache_stats_breakdown[GLOBAL_ACC_R][MISS] = 295250
	Total_core_cache_stats_breakdown[GLOBAL_ACC_R][RESERVATION_FAIL] = 622447
	Total_core_cache_stats_breakdown[GLOBAL_ACC_R][SECTOR_MISS] = 0
	Total_core_cache_stats_breakdown[GLOBAL_ACC_R][MSHR_HIT] = 53290
	Total_core_cache_stats_breakdown[LOCAL_ACC_R][HIT] = 0
	Total_core_cache_stats_breakdown[LOCAL_ACC_R][HIT_RESERVED] = 0
	Total_core_cache_stats_breakdown[LOCAL_ACC_R][MISS] = 0
	Total_core_cache_stats_breakdown[LOCAL_ACC_R][RESERVATION_FAIL] = 0
	Total_core_cache_stats_breakdown[LOCAL_ACC_R][SECTOR_MISS] = 0
	Total_core_cache_stats_breakdown[LOCAL_ACC_R][MSHR_HIT] = 0
	Total_core_cache_stats_breakdown[CONST_ACC_R][HIT] = 113881
	Total_core_cache_stats_breakdown[CONST_ACC_R][HIT_RESERVED] = 0
	Total_core_cache_stats_breakdown[CONST_ACC_R][MISS] = 807
	Total_core_cache_stats_breakdown[CONST_ACC_R][RESERVATION_FAIL] = 4460
	Total_core_cache_stats_breakdown[CONST_ACC_R][SECTOR_MISS] = 0
	Total_core_cache_stats_breakdown[CONST_ACC_R][MSHR_HIT] = 777
	Total_core_cache_stats_breakdown[TEXTURE_ACC_R][HIT] = 0
	Total_core_cache_stats_breakdown[TEXTURE_ACC_R][HIT_RESERVED] = 0
	Total_core_cache_stats_breakdown[TEXTURE_ACC_R][MISS] = 0
	Total_core_cache_stats_breakdown[TEXTURE_ACC_R][RESERVATION_FAIL] = 0
	Total_core_cache_stats_breakdown[TEXTURE_ACC_R][SECTOR_MISS] = 0
	Total_core_cache_stats_breakdown[TEXTURE_ACC_R][MSHR_HIT] = 0
	Total_core_cache_stats_breakdown[GLOBAL_ACC_W][HIT] = 0
	Total_core_cache_stats_breakdown[GLOBAL_ACC_W][HIT_RESERVED] = 0
	Total_core_cache_stats_breakdown[GLOBAL_ACC_W][MISS] = 65536
	Total_core_cache_stats_breakdown[GLOBAL_ACC_W][RESERVATION_FAIL] = 15
	Total_core_cache_stats_breakdown[GLOBAL_ACC_W][SECTOR_MISS] = 0
	Total_core_cache_stats_breakdown[GLOBAL_ACC_W][MSHR_HIT] = 0
	Total_core_cache_stats_breakdown[LOCAL_ACC_W][HIT] = 0
	Total_core_cache_stats_breakdown[LOCAL_ACC_W][HIT_RESERVED] = 0
	Total_core_cache_stats_breakdown[LOCAL_ACC_W][MISS] = 0
	Total_core_cache_stats_breakdown[LOCAL_ACC_W][RESERVATION_FAIL] = 0
	Total_core_cache_stats_breakdown[LOCAL_ACC_W][SECTOR_MISS] = 0
	Total_core_cache_stats_breakdown[LOCAL_ACC_W][MSHR_HIT] = 0
	Total_core_cache_stats_breakdown[L1_WRBK_ACC][HIT] = 0
	Total_core_cache_stats_breakdown[L1_WRBK_ACC][HIT_RESERVED] = 0
	Total_core_cache_stats_breakdown[L1_WRBK_ACC][MISS] = 0
	Total_core_cache_stats_breakdown[L1_WRBK_ACC][RESERVATION_FAIL] = 0
	Total_core_cache_stats_breakdown[L1_WRBK_ACC][SECTOR_MISS] = 0
	Total_core_cache_stats_breakdown[L1_WRBK_ACC][MSHR_HIT] = 0
	Total_core_cache_stats_breakdown[L2_WRBK_ACC][HIT] = 0
	Total_core_cache_stats_breakdown[L2_WRBK_ACC][HIT_RESERVED] = 0
	Total_core_cache_stats_breakdown[L2_WRBK_ACC][MISS] = 0
	Total_core_cache_stats_breakdown[L2_WRBK_ACC][RESERVATION_FAIL] = 0
	Total_core_cache_stats_breakdown[L2_WRBK_ACC][SECTOR_MISS] = 0
	Total_core_cache_stats_breakdown[L2_WRBK_ACC][MSHR_HIT] = 0
	Total_core_cache_stats_breakdown[INST_ACC_R][HIT] = 1667926
	Total_core_cache_stats_breakdown[INST_ACC_R][HIT_RESERVED] = 0
	Total_core_cache_stats_breakdown[INST_ACC_R][MISS] = 3242
	Total_core_cache_stats_breakdown[INST_ACC_R][RESERVATION_FAIL] = 0
	Total_core_cache_stats_breakdown[INST_ACC_R][SECTOR_MISS] = 0
	Total_core_cache_stats_breakdown[INST_ACC_R][MSHR_HIT] = 3092
	Total_core_cache_stats_breakdown[L1_WR_ALLOC_R][HIT] = 0
	Total_core_cache_stats_breakdown[L1_WR_ALLOC_R][HIT_RESERVED] = 0
	Total_core_cache_stats_breakdown[L1_WR_ALLOC_R][MISS] = 0
	Total_core_cache_stats_breakdown[L1_WR_ALLOC_R][RESERVATION_FAIL] = 0
	Total_core_cache_stats_breakdown[L1_WR_ALLOC_R][SECTOR_MISS] = 0
	Total_core_cache_stats_breakdown[L1_WR_ALLOC_R][MSHR_HIT] = 0
	Total_core_cache_stats_breakdown[L2_WR_ALLOC_R][HIT] = 0
	Total_core_cache_stats_breakdown[L2_WR_ALLOC_R][HIT_RESERVED] = 0
	Total_core_cache_stats_breakdown[L2_WR_ALLOC_R][MISS] = 0
	Total_core_cache_stats_breakdown[L2_WR_ALLOC_R][RESERVATION_FAIL] = 0
	Total_core_cache_stats_breakdown[L2_WR_ALLOC_R][SECTOR_MISS] = 0
	Total_core_cache_stats_breakdown[L2_WR_ALLOC_R][MSHR_HIT] = 0
	Total_core_cache_stats_breakdown[GLOBAL_ACC_R][TOTAL_ACCESS] = 516096
	Total_core_cache_stats_breakdown[CONST_ACC_R][TOTAL_ACCESS] = 114688
	Total_core_cache_stats_breakdown[GLOBAL_ACC_W][TOTAL_ACCESS] = 65536
	Total_core_cache_stats_breakdown[INST_ACC_R][TOTAL_ACCESS] = 1671168

Total_core_cache_fail_stats:
	Total_core_cache_fail_stats_breakdown[GLOBAL_ACC_R][LINE_ALLOC_FAIL] = 622360
	Total_core_cache_fail_stats_breakdown[GLOBAL_ACC_R][MISS_QUEUE_FULL] = 87
	Total_core_cache_fail_stats_breakdown[CONST_ACC_R][MSHR_MERGE_ENRTY_FAIL] = 4460
	Total_core_cache_fail_stats_breakdown[GLOBAL_ACC_W][MISS_QUEUE_FULL] = 15
ctas_completed 1024, Shader 0 warp_id issue ditsribution:
warp_id:
0, 1, 2, 3, 4, 5, 6, 7, 8, 9, 10, 11, 12, 13, 14, 15, 16, 17, 18, 19, 20, 21, 22, 23, 24, 25, 26, 27, 28, 29, 30, 31, 
distro:
6800, 6800, 6800, 6800, 6800, 6800, 6800, 6800, 6800, 6800, 6800, 6800, 6800, 6800, 6800, 6800, 6800, 6800, 6800, 6800, 6800, 6800, 6800, 6800, 6800, 6800, 6800, 6800, 6800, 6800, 6800, 6800, 
gpgpu_n_tot_thrd_icount = 104857600
gpgpu_n_tot_w_icount = 3276800
gpgpu_n_stall_shd_mem = 138001
gpgpu_n_mem_read_local = 0
gpgpu_n_mem_write_local = 0
gpgpu_n_mem_read_global = 295250
gpgpu_n_mem_write_global = 65536
gpgpu_n_mem_texture = 0
gpgpu_n_mem_const = 30
gpgpu_n_load_insn  = 12582912
gpgpu_n_store_insn = 2097152
gpgpu_n_shmem_insn = 0
gpgpu_n_sstarr_insn = 0
gpgpu_n_tex_insn = 0
gpgpu_n_const_mem_insn = 0
gpgpu_n_param_mem_insn = 3670016
gpgpu_n_shmem_bkconflict = 0
gpgpu_n_l1cache_bkconflict = 10661
gpgpu_n_intrawarp_mshr_merge = 0
gpgpu_n_cmem_portconflict = 4460
gpgpu_stall_shd_mem[c_mem][resource_stall] = 4460
gpgpu_stall_shd_mem[s_mem][bk_conf] = 0
gpgpu_stall_shd_mem[gl_mem][resource_stall] = 10661
gpgpu_stall_shd_mem[gl_mem][coal_stall] = 122880
gpgpu_stall_shd_mem[gl_mem][data_port_stall] = 0
gpu_reg_bank_conflict_stalls = 0
Warp Occupancy Distribution:
Stall:115640	W0_Idle:26035	W0_Scoreboard:4252123	W1:0	W2:0	W3:0	W4:0	W5:0	W6:0	W7:0	W8:0	W9:0	W10:0	W11:0	W12:0	W13:0	W14:0	W15:0	W16:0	W17:0	W18:0	W19:0	W20:0	W21:0	W22:0	W23:0	W24:0	W25:0	W26:0	W27:0	W28:0	W29:0	W30:0	W31:0	W32:3276800
single_issue_nums: WS0:1638400	WS1:1638400	
dual_issue_nums: WS0:0	WS1:0	
traffic_breakdown_coretomem[CONST_ACC_R] = 240 {8:30,}
traffic_breakdown_coretomem[GLOBAL_ACC_R] = 2362000 {8:295250,}
traffic_breakdown_coretomem[GLOBAL_ACC_W] = 8912896 {136:65536,}
traffic_breakdown_coretomem[INST_ACC_R] = 1200 {8:150,}
traffic_breakdown_memtocore[CONST_ACC_R] = 2400 {40:60,}
traffic_breakdown_memtocore[GLOBAL_ACC_R] = 47240000 {40:1181000,}
traffic_breakdown_memtocore[GLOBAL_ACC_W] = 2097152 {8:262144,}
traffic_breakdown_memtocore[INST_ACC_R] = 24000 {40:600,}
maxmflatency = 809 
max_icnt2mem_latency = 627 
maxmrqlatency = 621 
max_icnt2sh_latency = 201 
averagemflatency = 200 
avg_icnt2mem_latency = 14 
avg_mrq_latency = 35 
avg_icnt2sh_latency = 15 
mrq_lat_table:116871 	24675 	22714 	28700 	177046 	121615 	74045 	22750 	1284 	6 	0 	0 	0 	0 	0 	0 	0 	0 	0 	0 	0 	0 	0 	0 	0 	0 	0 	0 	0 	0 	0 	0 	
dq_lat_table:0 	0 	0 	0 	0 	0 	0 	0 	0 	0 	0 	0 	0 	0 	0 	0 	0 	0 	0 	0 	0 	0 	0 	0 	0 	0 	0 	0 	0 	0 	0 	0 	
mf_lat_table:0 	0 	0 	0 	0 	0 	0 	947016 	494673 	1515 	0 	0 	0 	0 	0 	0 	0 	0 	0 	0 	0 	0 	0 	0 	0 	0 	0 	0 	0 	0 	0 	0 	
icnt2mem_lat_table:0 	0 	87 	85 	7 	304020 	32405 	19724 	4482 	156 	0 	0 	0 	0 	0 	0 	0 	0 	0 	0 	0 	0 	0 	0 	
icnt2sh_lat_table:0 	0 	331377 	594360 	376984 	130081 	10116 	286 	0 	0 	0 	0 	0 	0 	0 	0 	0 	0 	0 	0 	0 	0 	0 	0 	
mf_lat_pw_table:0 	0 	0 	0 	0 	0 	0 	509 	4 	0 	0 	0 	0 	0 	0 	0 	0 	0 	0 	0 	0 	0 	0 	0 	0 	0 	0 	0 	0 	0 	0 	0 	
maximum concurrent accesses to same row:
dram[0]:        76        68        68        80        48        56       124       120       120       112        48        48        48        48        64        56 
dram[1]:        80        52        80        76        48        52       120       120       120       112        48        56        48        48        40        56 
dram[2]:        76        96        80        64        56        48       120       124       120       120        44        40        48        48        60        56 
dram[3]:        52        76        76        72        56        48       120       120       112       116        56        72        52        44        56        32 
dram[4]:        80        64        80        72        48        48       124       120       120       112        56        44        48        40        56        56 
dram[5]:        76        72        80        68        48        52       120       120       120       112        56        56        52        36        40        40 
maximum service time to same row:
dram[0]:     11352     10870     12198     12109     10412     11329     11531      9308     11562     17600     12315     12625     11997     11451     20543     20619 
dram[1]:     11750     10890     12535     12263     10117     11295     11368     11189     11586     17666     11283     11815     11988     12083     20547     20609 
dram[2]:     12056     10503     12679     12251      9548     10269     11337     10722     12153     17341     11720     10778     11709     10947     20657     20041 
dram[3]:     10675     10084     12309     11365     11162     10983     12039     10598      9975     17385     11035     10555     12255     10749     20369     20622 
dram[4]:     12401     10233     11970     11716     11202     10750     11487      9906     17234     17575     12307     10056     11653     10951     20319     20554 
dram[5]:     11296     10272     11444     12749     12375     10286     11203     11379     17444     17615     10842     10492     12411     11643     20697     20497 
average row accesses per activate:
dram[0]:  4.827372  4.862500  4.686364  4.872157  4.737654  4.817541  4.534697  4.526163  4.561533  4.689498  4.788069  5.023908  4.521158  4.739875  4.382545  4.585366 
dram[1]:  4.691321  4.925278  4.771363  5.038026  4.704755  5.008157  4.581979  5.295823  4.682539  4.979823  4.877502  4.860335  4.555805  4.954472  4.437408  4.701329 
dram[2]:  4.874608  4.651163  4.733945  4.554492  4.813187  4.523530  4.695389  4.444445  4.641199  4.604790  4.812006  5.079233  4.552906  4.440233  4.703675  4.431618 
dram[3]:  4.834891  4.595115  4.988746  4.636704  4.974858  4.732308  5.001610  4.558003  5.061224  4.570580  5.039702  4.765258  5.103853  4.502216  4.815052  4.360347 
dram[4]:  4.982344  4.718182  4.739862  4.671192  4.639035  4.739599  4.619509  4.535088  4.639098  4.546194  4.738725  4.709977  4.583710  4.468864  4.369644  4.392414 
dram[5]:  4.598962  4.791345  4.856808  4.945774  4.810493  4.918334  4.723954  4.937997  4.772622  4.795331  4.879807  4.879807  4.663094  4.720247  4.463306  4.648920 
average row locality = 589706/124929 = 4.720329
number of total memory accesses made:
dram[0]:         0         0         0         0         0         0         0         0         0         0         0         0         0         0         0         0 
dram[1]:         0         0         0         0         0         0         0         0         0         0         0         0         0         0         0         0 
dram[2]:         0         0         0         0         0         0         0         0         0         0         0         0         0         0         0         0 
dram[3]:         0         0         0         0         0         0         0         0         0         0         0         0         0         0         0         0 
dram[4]:         0         0         0         0         0         0         0         0         0         0         0         0         0         0         0         0 
dram[5]:         0         0         0         0         0         0         0         0         0         0         0         0         0         0         0         0 
total accesses: 0
min_bank_accesses = 0!
min_chip_accesses = 0!
number of total read accesses:
dram[0]:         0         0         0         0         0         0         0         0         0         0         0         0         0         0         0         0 
dram[1]:         0         0         0         0         0         0         0         0         0         0         0         0         0         0         0         0 
dram[2]:         0         0         0         0         0         0         0         0         0         0         0         0         0         0         0         0 
dram[3]:         0         0         0         0         0         0         0         0         0         0         0         0         0         0         0         0 
dram[4]:         0         0         0         0         0         0         0         0         0         0         0         0         0         0         0         0 
dram[5]:         0         0         0         0         0         0         0         0         0         0         0         0         0         0         0         0 
total dram reads = 0
min_bank_accesses = 0!
min_chip_accesses = 0!
number of total write accesses:
dram[0]:      1344      1344      1324      1320      1256      1256      1344      1344      1300      1300      1336      1348      1388      1388      1284      1280 
dram[1]:      1344      1344      1324      1326      1254      1256      1344      1344      1302      1300      1336      1348      1388      1388      1284      1274 
dram[2]:      1344      1344      1328      1322      1256      1264      1344      1344      1304      1296      1336      1348      1388      1384      1280      1278 
dram[3]:      1344      1344      1332      1324      1252      1264      1344      1344      1304      1296      1338      1348      1388      1384      1276      1276 
dram[4]:      1344      1344      1318      1332      1256      1264      1344      1344      1300      1294      1348      1348      1388      1384      1282      1268 
dram[5]:      1344      1344      1318      1324      1254      1262      1344      1344      1302      1292      1348      1348      1388      1384      1282      1274 
total dram writes = 126940
bank skew: 1388/1252 = 1.11
chip skew: 21160/21152 = 1.00
average mf latency per bank:
dram[0]:       2258      2336      2285      2331      2347      2416      2253      2371      2279      2349      2185      2291      2122      2202      2258      2341
dram[1]:       2309      2284      2300      2205      2443      2348      2373      2263      2345      2256      2284      2205      2215      2113      2361      2273
dram[2]:       2349      2231      2292      2272      2411      2321      2378      2290      2344      2306      2261      2167      2210      2148      2322      2268
dram[3]:       2267      2327      2184      2309      2360      2443      2269      2334      2261      2369      2198      2290      2102      2194      2262      2367
dram[4]:       2221      2354      2283      2279      2334      2417      2261      2339      2277      2376      2177      2282      2150      2204      2277      2347
dram[5]:       2308      2263      2310      2213      2435      2365      2366      2242      2367      2291      2288      2209      2184      2100      2358      2252
maximum mf latency per bank:
dram[0]:        600       548       569       622       639       558       514       568       768       549       621       627       597       590       597       551
dram[1]:        567       553       534       552       514       540       724       600       515       579       567       615       563       554       673       677
dram[2]:        570       516       481       637       500       522       598       562       572       542       523       613       592       657       530       535
dram[3]:        584       809       533       537       561       528       551       578       583       563       533       621       628       655       558       615
dram[4]:        650       607       558       464       628       506       594       554       539       646       507       504       585       588       628       626
dram[5]:        538       521       524       621       605       600       619       669       619       529       679       524       591       560       629       583
Memory Partition 0: 
Cache L2_bank_000:
MSHR contents

Cache L2_bank_001:
MSHR contents

In Dram Latency Queue (total = 0): 
DRAM[0]: 16 bks, busW=4 BL=8 CL=12, tRRD=6 tCCD=2, tRCD=12 tRAS=28 tRP=12 tRC=40
n_cmd=339295 n_nop=193139 n_act=20955 n_pre=20939 n_ref_event=0 n_req=98322 n_rd=87744 n_rd_L2_A=0 n_write=0 n_wr_bk=21156 bw_util=0.6419
n_activity=330521 dram_eff=0.659
bk0: 5536a 247676i bk1: 5552a 247803i bk2: 5524a 246839i bk3: 5552a 247503i bk4: 5512a 251584i bk5: 5524a 252359i bk6: 5536a 246175i bk7: 5556a 245367i bk8: 5540a 247352i bk9: 5512a 246737i bk10: 5432a 248362i bk11: 5420a 250602i bk12: 5396a 245589i bk13: 5392a 248796i bk14: 5384a 246955i bk15: 5376a 248017i 

------------------------------------------------------------------------

Row_Buffer_Locality = 0.786874
Row_Buffer_Locality_read = 0.830279
Row_Buffer_Locality_write = 0.426829
Bank_Level_Parallism = 4.728677
Bank_Level_Parallism_Col = 3.676719
Bank_Level_Parallism_Ready = 1.652289
write_to_read_ratio_blp_rw_average = 0.396985
GrpLevelPara = 2.558819 

BW Util details:
bwutil = 0.641919 
total_CMD = 339295 
util_bw = 217800 
Wasted_Col = 99202 
Wasted_Row = 9492 
Idle = 12801 

BW Util Bottlenecks: 
RCDc_limit = 64934 
RCDWRc_limit = 13791 
WTRc_limit = 54413 
RTWc_limit = 138245 
CCDLc_limit = 52923 
rwq = 0 
CCDLc_limit_alone = 36307 
WTRc_limit_alone = 51759 
RTWc_limit_alone = 124283 

Commands details: 
total_CMD = 339295 
n_nop = 193139 
Read = 87744 
Write = 0 
L2_Alloc = 0 
L2_WB = 21156 
n_act = 20955 
n_pre = 20939 
n_ref = 0 
n_req = 98322 
total_req = 108900 

Dual Bus Interface Util: 
issued_total_row = 41894 
issued_total_col = 108900 
Row_Bus_Util =  0.123474 
CoL_Bus_Util = 0.320960 
Either_Row_CoL_Bus_Util = 0.430764 
Issued_on_Two_Bus_Simul_Util = 0.013670 
issued_two_Eff = 0.031733 
queue_avg = 13.474328 


dram_util_bins: 0 0 0 0 0 0 0 0 0 0
dram_eff_bins: 0 0 0 0 0 0 0 0 0 0
mrqq: max=64 avg=13.4743
Memory Partition 1: 
Cache L2_bank_002:
MSHR contents

Cache L2_bank_003:
MSHR contents

In Dram Latency Queue (total = 0): 
DRAM[1]: 16 bks, busW=4 BL=8 CL=12, tRRD=6 tCCD=2, tRCD=12 tRAS=28 tRP=12 tRC=40
n_cmd=339295 n_nop=193942 n_act=20441 n_pre=20425 n_ref_event=0 n_req=98290 n_rd=87712 n_rd_L2_A=0 n_write=0 n_wr_bk=21156 bw_util=0.6417
n_activity=330332 dram_eff=0.6591
bk0: 5544a 246508i bk1: 5524a 248130i bk2: 5536a 249227i bk3: 5564a 250478i bk4: 5508a 250097i bk5: 5512a 254785i bk6: 5532a 244023i bk7: 5540a 249296i bk8: 5544a 250090i bk9: 5520a 250691i bk10: 5424a 250702i bk11: 5416a 249168i bk12: 5388a 244428i bk13: 5400a 249236i bk14: 5384a 248511i bk15: 5376a 249741i 

------------------------------------------------------------------------

Row_Buffer_Locality = 0.792034
Row_Buffer_Locality_read = 0.835370
Row_Buffer_Locality_write = 0.432691
Bank_Level_Parallism = 4.681723
Bank_Level_Parallism_Col = 0.000000
Bank_Level_Parallism_Ready = 1.649387
write_to_read_ratio_blp_rw_average = 0.000000
GrpLevelPara = 0.000000 

BW Util details:
bwutil = 0.641731 
total_CMD = 339295 
util_bw = 217736 
Wasted_Col = 98480 
Wasted_Row = 9935 
Idle = 13144 

BW Util Bottlenecks: 
RCDc_limit = 62915 
RCDWRc_limit = 14088 
WTRc_limit = 53058 
RTWc_limit = 136020 
CCDLc_limit = 53034 
rwq = 0 
CCDLc_limit_alone = 36469 
WTRc_limit_alone = 50362 
RTWc_limit_alone = 122151 

Commands details: 
total_CMD = 339295 
n_nop = 193942 
Read = 87712 
Write = 0 
L2_Alloc = 0 
L2_WB = 21156 
n_act = 20441 
n_pre = 20425 
n_ref = 0 
n_req = 98290 
total_req = 108868 

Dual Bus Interface Util: 
issued_total_row = 40866 
issued_total_col = 108868 
Row_Bus_Util =  0.120444 
CoL_Bus_Util = 0.320865 
Either_Row_CoL_Bus_Util = 0.428397 
Issued_on_Two_Bus_Simul_Util = 0.012912 
issued_two_Eff = 0.030140 
queue_avg = 13.272810 


dram_util_bins: 0 0 0 0 0 0 0 0 0 0
dram_eff_bins: 0 0 0 0 0 0 0 0 0 0
mrqq: max=64 avg=13.2728
Memory Partition 2: 
Cache L2_bank_004:
MSHR contents

Cache L2_bank_005:
MSHR contents

In Dram Latency Queue (total = 0): 
DRAM[2]: 16 bks, busW=4 BL=8 CL=12, tRRD=6 tCCD=2, tRCD=12 tRAS=28 tRP=12 tRC=40
n_cmd=339295 n_nop=192773 n_act=21116 n_pre=21100 n_ref_event=0 n_req=98268 n_rd=87688 n_rd_L2_A=0 n_write=0 n_wr_bk=21160 bw_util=0.6416
n_activity=330340 dram_eff=0.659
bk0: 5548a 250588i bk1: 5528a 244478i bk2: 5528a 249067i bk3: 5524a 245192i bk4: 5504a 254027i bk5: 5520a 248521i bk6: 5540a 245916i bk7: 5528a 243310i bk8: 5544a 247351i bk9: 5504a 245263i bk10: 5424a 248636i bk11: 5416a 251322i bk12: 5416a 247214i bk13: 5400a 245174i bk14: 5376a 250894i bk15: 5388a 250789i 

------------------------------------------------------------------------

Row_Buffer_Locality = 0.785118
Row_Buffer_Locality_read = 0.829350
Row_Buffer_Locality_write = 0.418526
Bank_Level_Parallism = 4.725594
Bank_Level_Parallism_Col = 3.665536
Bank_Level_Parallism_Ready = 1.657133
write_to_read_ratio_blp_rw_average = 0.398107
GrpLevelPara = 2.564885 

BW Util details:
bwutil = 0.641613 
total_CMD = 339295 
util_bw = 217696 
Wasted_Col = 99843 
Wasted_Row = 9119 
Idle = 12637 

BW Util Bottlenecks: 
RCDc_limit = 64909 
RCDWRc_limit = 14182 
WTRc_limit = 55249 
RTWc_limit = 139533 
CCDLc_limit = 53043 
rwq = 0 
CCDLc_limit_alone = 36581 
WTRc_limit_alone = 52580 
RTWc_limit_alone = 125740 

Commands details: 
total_CMD = 339295 
n_nop = 192773 
Read = 87688 
Write = 0 
L2_Alloc = 0 
L2_WB = 21160 
n_act = 21116 
n_pre = 21100 
n_ref = 0 
n_req = 98268 
total_req = 108848 

Dual Bus Interface Util: 
issued_total_row = 42216 
issued_total_col = 108848 
Row_Bus_Util =  0.124423 
CoL_Bus_Util = 0.320806 
Either_Row_CoL_Bus_Util = 0.431843 
Issued_on_Two_Bus_Simul_Util = 0.013387 
issued_two_Eff = 0.030999 
queue_avg = 12.987050 


dram_util_bins: 0 0 0 0 0 0 0 0 0 0
dram_eff_bins: 0 0 0 0 0 0 0 0 0 0
mrqq: max=64 avg=12.9871
Memory Partition 3: 
Cache L2_bank_006:
MSHR contents

Cache L2_bank_007:
MSHR contents

In Dram Latency Queue (total = 0): 
DRAM[3]: 16 bks, busW=4 BL=8 CL=12, tRRD=6 tCCD=2, tRCD=12 tRAS=28 tRP=12 tRC=40
n_cmd=339295 n_nop=193697 n_act=20588 n_pre=20572 n_ref_event=0 n_req=98283 n_rd=87704 n_rd_L2_A=0 n_write=0 n_wr_bk=21158 bw_util=0.6417
n_activity=330549 dram_eff=0.6587
bk0: 5536a 250744i bk1: 5536a 246503i bk2: 5540a 251075i bk3: 5528a 245878i bk4: 5508a 254709i bk5: 5520a 250211i bk6: 5540a 250052i bk7: 5536a 245633i bk8: 5548a 250285i bk9: 5504a 246479i bk10: 5424a 251850i bk11: 5416a 249337i bk12: 5400a 251956i bk13: 5404a 245575i bk14: 5376a 250422i bk15: 5388a 247624i 

------------------------------------------------------------------------

Row_Buffer_Locality = 0.790523
Row_Buffer_Locality_read = 0.834044
Row_Buffer_Locality_write = 0.429719
Bank_Level_Parallism = 4.659926
Bank_Level_Parallism_Col = 3.633462
Bank_Level_Parallism_Ready = 1.650224
write_to_read_ratio_blp_rw_average = 0.396075
GrpLevelPara = 2.532609 

BW Util details:
bwutil = 0.641695 
total_CMD = 339295 
util_bw = 217724 
Wasted_Col = 99766 
Wasted_Row = 9303 
Idle = 12502 

BW Util Bottlenecks: 
RCDc_limit = 64126 
RCDWRc_limit = 13881 
WTRc_limit = 53380 
RTWc_limit = 133768 
CCDLc_limit = 53156 
rwq = 0 
CCDLc_limit_alone = 36609 
WTRc_limit_alone = 50645 
RTWc_limit_alone = 119956 

Commands details: 
total_CMD = 339295 
n_nop = 193697 
Read = 87704 
Write = 0 
L2_Alloc = 0 
L2_WB = 21158 
n_act = 20588 
n_pre = 20572 
n_ref = 0 
n_req = 98283 
total_req = 108862 

Dual Bus Interface Util: 
issued_total_row = 41160 
issued_total_col = 108862 
Row_Bus_Util =  0.121310 
CoL_Bus_Util = 0.320848 
Either_Row_CoL_Bus_Util = 0.429119 
Issued_on_Two_Bus_Simul_Util = 0.013039 
issued_two_Eff = 0.030385 
queue_avg = 13.325490 


dram_util_bins: 0 0 0 0 0 0 0 0 0 0
dram_eff_bins: 0 0 0 0 0 0 0 0 0 0
mrqq: max=64 avg=13.3255
Memory Partition 4: 
Cache L2_bank_008:
MSHR contents

Cache L2_bank_009:
MSHR contents

In Dram Latency Queue (total = 0): 
DRAM[4]: 16 bks, busW=4 BL=8 CL=12, tRRD=6 tCCD=2, tRCD=12 tRAS=28 tRP=12 tRC=40
n_cmd=339295 n_nop=192474 n_act=21236 n_pre=21220 n_ref_event=0 n_req=98263 n_rd=87684 n_rd_L2_A=0 n_write=0 n_wr_bk=21158 bw_util=0.6416
n_activity=330237 dram_eff=0.6592
bk0: 5536a 250919i bk1: 5556a 248615i bk2: 5536a 249874i bk3: 5528a 248223i bk4: 5528a 253086i bk5: 5520a 252731i bk6: 5532a 245955i bk7: 5532a 245114i bk8: 5520a 248132i bk9: 5504a 246940i bk10: 5420a 250195i bk11: 5416a 248107i bk12: 5384a 247047i bk13: 5408a 246180i bk14: 5376a 247856i bk15: 5388a 248645i 

------------------------------------------------------------------------

Row_Buffer_Locality = 0.783886
Row_Buffer_Locality_read = 0.828498
Row_Buffer_Locality_write = 0.414122
Bank_Level_Parallism = 4.701866
Bank_Level_Parallism_Col = 3.627091
Bank_Level_Parallism_Ready = 1.637477
write_to_read_ratio_blp_rw_average = 0.392940
GrpLevelPara = 2.547991 

BW Util details:
bwutil = 0.641577 
total_CMD = 339295 
util_bw = 217684 
Wasted_Col = 99739 
Wasted_Row = 8831 
Idle = 13041 

BW Util Bottlenecks: 
RCDc_limit = 65413 
RCDWRc_limit = 14384 
WTRc_limit = 56398 
RTWc_limit = 135193 
CCDLc_limit = 52106 
rwq = 0 
CCDLc_limit_alone = 36040 
WTRc_limit_alone = 53633 
RTWc_limit_alone = 121892 

Commands details: 
total_CMD = 339295 
n_nop = 192474 
Read = 87684 
Write = 0 
L2_Alloc = 0 
L2_WB = 21158 
n_act = 21236 
n_pre = 21220 
n_ref = 0 
n_req = 98263 
total_req = 108842 

Dual Bus Interface Util: 
issued_total_row = 42456 
issued_total_col = 108842 
Row_Bus_Util =  0.125130 
CoL_Bus_Util = 0.320789 
Either_Row_CoL_Bus_Util = 0.432724 
Issued_on_Two_Bus_Simul_Util = 0.013195 
issued_two_Eff = 0.030493 
queue_avg = 13.108723 


dram_util_bins: 0 0 0 0 0 0 0 0 0 0
dram_eff_bins: 0 0 0 0 0 0 0 0 0 0
mrqq: max=64 avg=13.1087
Memory Partition 5: 
Cache L2_bank_010:
MSHR contents

Cache L2_bank_011:
MSHR contents

In Dram Latency Queue (total = 1): 
Ready @ 257129 -   mf: uid=3889884, sid4294967295:w4294967295, part=5, addr=0xc11fe700, store, size=128, L2_WRBK  status = IN_PARTITION_DRAM_LATENCY_QUEUE (257029), 
DRAM[5]: 16 bks, busW=4 BL=8 CL=12, tRRD=6 tCCD=2, tRCD=12 tRAS=28 tRP=12 tRC=40
n_cmd=339295 n_nop=193605 n_act=20593 n_pre=20577 n_ref_event=4567768403222847415 n_req=98280 n_rd=87704 n_rd_L2_A=0 n_write=0 n_wr_bk=21152 bw_util=0.6417
n_activity=330226 dram_eff=0.6593
bk0: 5532a 246683i bk1: 5528a 247193i bk2: 5548a 251401i bk3: 5540a 251467i bk4: 5516a 251889i bk5: 5512a 251550i bk6: 5540a 248170i bk7: 5540a 247444i bk8: 5520a 247596i bk9: 5516a 248656i bk10: 5416a 249043i bk11: 5416a 250085i bk12: 5396a 246513i bk13: 5416a 247315i bk14: 5380a 247964i bk15: 5388a 249645i 

------------------------------------------------------------------------

Row_Buffer_Locality = 0.790466
Row_Buffer_Locality_read = 0.834147
Row_Buffer_Locality_write = 0.428234
Bank_Level_Parallism = 4.686109
Bank_Level_Parallism_Col = 3.662594
Bank_Level_Parallism_Ready = 1.651218
write_to_read_ratio_blp_rw_average = 0.400213
GrpLevelPara = 2.549409 

BW Util details:
bwutil = 0.641660 
total_CMD = 339295 
util_bw = 217712 
Wasted_Col = 99097 
Wasted_Row = 9461 
Idle = 13025 

BW Util Bottlenecks: 
RCDc_limit = 63824 
RCDWRc_limit = 13813 
WTRc_limit = 53266 
RTWc_limit = 136284 
CCDLc_limit = 53685 
rwq = 0 
CCDLc_limit_alone = 36921 
WTRc_limit_alone = 50679 
RTWc_limit_alone = 122107 

Commands details: 
total_CMD = 339295 
n_nop = 193605 
Read = 87704 
Write = 0 
L2_Alloc = 0 
L2_WB = 21152 
n_act = 20593 
n_pre = 20577 
n_ref = 4567768403222847415 
n_req = 98280 
total_req = 108856 

Dual Bus Interface Util: 
issued_total_row = 41170 
issued_total_col = 108856 
Row_Bus_Util =  0.121340 
CoL_Bus_Util = 0.320830 
Either_Row_CoL_Bus_Util = 0.429390 
Issued_on_Two_Bus_Simul_Util = 0.012779 
issued_two_Eff = 0.029762 
queue_avg = 13.193351 


dram_util_bins: 0 0 0 0 0 0 0 0 0 0
dram_eff_bins: 0 0 0 0 0 0 0 0 0 0
mrqq: max=64 avg=13.1934

========= L2 cache stats =========
L2_cache_bank[0]: Access = 118208, Miss = 65700, Miss_rate = 0.556, Pending_hits = 1942, Reservation_fails = 604
L2_cache_bank[1]: Access = 122732, Miss = 65732, Miss_rate = 0.536, Pending_hits = 1834, Reservation_fails = 44
L2_cache_bank[2]: Access = 122828, Miss = 65700, Miss_rate = 0.535, Pending_hits = 2201, Reservation_fails = 237
L2_cache_bank[3]: Access = 117888, Miss = 65700, Miss_rate = 0.557, Pending_hits = 1523, Reservation_fails = 49
L2_cache_bank[4]: Access = 122872, Miss = 65720, Miss_rate = 0.535, Pending_hits = 2024, Reservation_fails = 268
L2_cache_bank[5]: Access = 118044, Miss = 65656, Miss_rate = 0.556, Pending_hits = 1877, Reservation_fails = 38
L2_cache_bank[6]: Access = 117920, Miss = 65712, Miss_rate = 0.557, Pending_hits = 1441, Reservation_fails = 301
L2_cache_bank[7]: Access = 122508, Miss = 65680, Miss_rate = 0.536, Pending_hits = 2101, Reservation_fails = 40
L2_cache_bank[8]: Access = 118052, Miss = 65680, Miss_rate = 0.556, Pending_hits = 1812, Reservation_fails = 149
L2_cache_bank[9]: Access = 122716, Miss = 65700, Miss_rate = 0.535, Pending_hits = 1974, Reservation_fails = 41
L2_cache_bank[10]: Access = 122488, Miss = 65696, Miss_rate = 0.536, Pending_hits = 2028, Reservation_fails = 36
L2_cache_bank[11]: Access = 117548, Miss = 65704, Miss_rate = 0.559, Pending_hits = 1594, Reservation_fails = 52
L2_total_cache_accesses = 1443804
L2_total_cache_misses = 788380
L2_total_cache_miss_rate = 0.5460
L2_total_cache_pending_hits = 22351
L2_total_cache_reservation_fails = 1859
L2_total_cache_breakdown:
	L2_cache_stats_breakdown[GLOBAL_ACC_R][HIT] = 632587
	L2_cache_stats_breakdown[GLOBAL_ACC_R][HIT_RESERVED] = 22225
	L2_cache_stats_breakdown[GLOBAL_ACC_R][MISS] = 131547
	L2_cache_stats_breakdown[GLOBAL_ACC_R][RESERVATION_FAIL] = 540
	L2_cache_stats_breakdown[GLOBAL_ACC_R][SECTOR_MISS] = 394641
	L2_cache_stats_breakdown[GLOBAL_ACC_R][MSHR_HIT] = 22225
	L2_cache_stats_breakdown[LOCAL_ACC_R][HIT] = 0
	L2_cache_stats_breakdown[LOCAL_ACC_R][HIT_RESERVED] = 0
	L2_cache_stats_breakdown[LOCAL_ACC_R][MISS] = 0
	L2_cache_stats_breakdown[LOCAL_ACC_R][RESERVATION_FAIL] = 0
	L2_cache_stats_breakdown[LOCAL_ACC_R][SECTOR_MISS] = 0
	L2_cache_stats_breakdown[LOCAL_ACC_R][MSHR_HIT] = 0
	L2_cache_stats_breakdown[CONST_ACC_R][HIT] = 38
	L2_cache_stats_breakdown[CONST_ACC_R][HIT_RESERVED] = 18
	L2_cache_stats_breakdown[CONST_ACC_R][MISS] = 1
	L2_cache_stats_breakdown[CONST_ACC_R][RESERVATION_FAIL] = 331
	L2_cache_stats_breakdown[CONST_ACC_R][SECTOR_MISS] = 3
	L2_cache_stats_breakdown[CONST_ACC_R][MSHR_HIT] = 18
	L2_cache_stats_breakdown[TEXTURE_ACC_R][HIT] = 0
	L2_cache_stats_breakdown[TEXTURE_ACC_R][HIT_RESERVED] = 0
	L2_cache_stats_breakdown[TEXTURE_ACC_R][MISS] = 0
	L2_cache_stats_breakdown[TEXTURE_ACC_R][RESERVATION_FAIL] = 0
	L2_cache_stats_breakdown[TEXTURE_ACC_R][SECTOR_MISS] = 0
	L2_cache_stats_breakdown[TEXTURE_ACC_R][MSHR_HIT] = 0
	L2_cache_stats_breakdown[GLOBAL_ACC_W][HIT] = 0
	L2_cache_stats_breakdown[GLOBAL_ACC_W][HIT_RESERVED] = 0
	L2_cache_stats_breakdown[GLOBAL_ACC_W][MISS] = 65536
	L2_cache_stats_breakdown[GLOBAL_ACC_W][RESERVATION_FAIL] = 0
	L2_cache_stats_breakdown[GLOBAL_ACC_W][SECTOR_MISS] = 196608
	L2_cache_stats_breakdown[GLOBAL_ACC_W][MSHR_HIT] = 0
	L2_cache_stats_breakdown[LOCAL_ACC_W][HIT] = 0
	L2_cache_stats_breakdown[LOCAL_ACC_W][HIT_RESERVED] = 0
	L2_cache_stats_breakdown[LOCAL_ACC_W][MISS] = 0
	L2_cache_stats_breakdown[LOCAL_ACC_W][RESERVATION_FAIL] = 0
	L2_cache_stats_breakdown[LOCAL_ACC_W][SECTOR_MISS] = 0
	L2_cache_stats_breakdown[LOCAL_ACC_W][MSHR_HIT] = 0
	L2_cache_stats_breakdown[L1_WRBK_ACC][HIT] = 0
	L2_cache_stats_breakdown[L1_WRBK_ACC][HIT_RESERVED] = 0
	L2_cache_stats_breakdown[L1_WRBK_ACC][MISS] = 0
	L2_cache_stats_breakdown[L1_WRBK_ACC][RESERVATION_FAIL] = 0
	L2_cache_stats_breakdown[L1_WRBK_ACC][SECTOR_MISS] = 0
	L2_cache_stats_breakdown[L1_WRBK_ACC][MSHR_HIT] = 0
	L2_cache_stats_breakdown[L2_WRBK_ACC][HIT] = 0
	L2_cache_stats_breakdown[L2_WRBK_ACC][HIT_RESERVED] = 0
	L2_cache_stats_breakdown[L2_WRBK_ACC][MISS] = 0
	L2_cache_stats_breakdown[L2_WRBK_ACC][RESERVATION_FAIL] = 0
	L2_cache_stats_breakdown[L2_WRBK_ACC][SECTOR_MISS] = 0
	L2_cache_stats_breakdown[L2_WRBK_ACC][MSHR_HIT] = 0
	L2_cache_stats_breakdown[INST_ACC_R][HIT] = 448
	L2_cache_stats_breakdown[INST_ACC_R][HIT_RESERVED] = 108
	L2_cache_stats_breakdown[INST_ACC_R][MISS] = 11
	L2_cache_stats_breakdown[INST_ACC_R][RESERVATION_FAIL] = 988
	L2_cache_stats_breakdown[INST_ACC_R][SECTOR_MISS] = 33
	L2_cache_stats_breakdown[INST_ACC_R][MSHR_HIT] = 108
	L2_cache_stats_breakdown[L1_WR_ALLOC_R][HIT] = 0
	L2_cache_stats_breakdown[L1_WR_ALLOC_R][HIT_RESERVED] = 0
	L2_cache_stats_breakdown[L1_WR_ALLOC_R][MISS] = 0
	L2_cache_stats_breakdown[L1_WR_ALLOC_R][RESERVATION_FAIL] = 0
	L2_cache_stats_breakdown[L1_WR_ALLOC_R][SECTOR_MISS] = 0
	L2_cache_stats_breakdown[L1_WR_ALLOC_R][MSHR_HIT] = 0
	L2_cache_stats_breakdown[L2_WR_ALLOC_R][HIT] = 0
	L2_cache_stats_breakdown[L2_WR_ALLOC_R][HIT_RESERVED] = 0
	L2_cache_stats_breakdown[L2_WR_ALLOC_R][MISS] = 0
	L2_cache_stats_breakdown[L2_WR_ALLOC_R][RESERVATION_FAIL] = 0
	L2_cache_stats_breakdown[L2_WR_ALLOC_R][SECTOR_MISS] = 0
	L2_cache_stats_breakdown[L2_WR_ALLOC_R][MSHR_HIT] = 0
	L2_cache_stats_breakdown[GLOBAL_ACC_R][TOTAL_ACCESS] = 1181000
	L2_cache_stats_breakdown[CONST_ACC_R][TOTAL_ACCESS] = 60
	L2_cache_stats_breakdown[GLOBAL_ACC_W][TOTAL_ACCESS] = 262144
	L2_cache_stats_breakdown[INST_ACC_R][TOTAL_ACCESS] = 600
L2_total_cache_reservation_fail_breakdown:
	L2_cache_stats_fail_breakdown[GLOBAL_ACC_R][MISS_QUEUE_FULL] = 540
	L2_cache_stats_fail_breakdown[CONST_ACC_R][MSHR_MERGE_ENRTY_FAIL] = 331
	L2_cache_stats_fail_breakdown[INST_ACC_R][MSHR_MERGE_ENRTY_FAIL] = 988
L2_cache_data_port_util = 0.222
L2_cache_fill_port_util = 0.171

icnt_total_pkts_mem_to_simt=1443804
icnt_total_pkts_simt_to_mem=557574
LD_mem_lat_dist  0 0 0 0 0 0 0 0 0 0 0 0 0 0 0 0 0 0 0 0 0 0 0 0 0 0 0
ST_mem_lat_dist  0 0 0 0 0 0 0 0 0 0 0 0 0 0 0 0 0 0 0 0 0 0 0 0 0 0 0
----------------------------Interconnect-DETAILS--------------------------------
Class 0:
Packet latency average = 12.4117
	minimum = 5
	maximum = 199
Network latency average = 12.3503
	minimum = 5
	maximum = 193
Slowest packet = 16176
Flit latency average = 11.5603
	minimum = 5
	maximum = 193
Slowest flit = 17292
Fragmentation average = 0
	minimum = 0
	maximum = 0
Injected packet rate average = 0.260048
	minimum = 0.090246 (at node 0)
	maximum = 0.478023 (at node 19)
Accepted packet rate average = 0.260048
	minimum = 0.114328 (at node 26)
	maximum = 0.381401 (at node 9)
Injected flit rate average = 0.288377
	minimum = 0.140522 (at node 11)
	maximum = 0.478023 (at node 19)
Accepted flit rate average= 0.288377
	minimum = 0.178076 (at node 26)
	maximum = 0.381401 (at node 9)
Injected packet length average = 1.10894
Accepted packet length average = 1.10894
Total in-flight flits = 0 (0 measured)
====== Overall Traffic Statistics ======
====== Traffic class 0 ======
Packet latency average = 12.4117 (1 samples)
	minimum = 5 (1 samples)
	maximum = 199 (1 samples)
Network latency average = 12.3503 (1 samples)
	minimum = 5 (1 samples)
	maximum = 193 (1 samples)
Flit latency average = 11.5603 (1 samples)
	minimum = 5 (1 samples)
	maximum = 193 (1 samples)
Fragmentation average = 0 (1 samples)
	minimum = 0 (1 samples)
	maximum = 0 (1 samples)
Injected packet rate average = 0.260048 (1 samples)
	minimum = 0.090246 (1 samples)
	maximum = 0.478023 (1 samples)
Accepted packet rate average = 0.260048 (1 samples)
	minimum = 0.114328 (1 samples)
	maximum = 0.381401 (1 samples)
Injected flit rate average = 0.288377 (1 samples)
	minimum = 0.140522 (1 samples)
	maximum = 0.478023 (1 samples)
Accepted flit rate average = 0.288377 (1 samples)
	minimum = 0.178076 (1 samples)
	maximum = 0.381401 (1 samples)
Injected packet size average = 1.10894 (1 samples)
Accepted packet size average = 1.10894 (1 samples)
Hops average = 1 (1 samples)
----------------------------END-of-Interconnect-DETAILS-------------------------


gpgpu_simulation_time = 0 days, 0 hrs, 14 min, 10 sec (850 sec)
gpgpu_simulation_rate = 123053 (inst/sec)
gpgpu_simulation_rate = 302 (cycle/sec)
gpgpu_silicon_slowdown = 2317880x
GPGPU-Sim PTX: Setting up arguments for 8 bytes starting at 0x7ffcfddbeb28..
GPGPU-Sim PTX: Setting up arguments for 8 bytes starting at 0x7ffcfddbeb20..
GPGPU-Sim PTX: Setting up arguments for 8 bytes starting at 0x7ffcfddbeb18..
GPGPU-Sim PTX: Setting up arguments for 4 bytes starting at 0x7ffcfddbeb14..
GPGPU-Sim PTX: Setting up arguments for 4 bytes starting at 0x7ffcfddbeb10..
GPGPU-Sim PTX: Setting up arguments for 4 bytes starting at 0x7ffcfddbeb0c..
GPGPU-Sim PTX: Setting up arguments for 4 bytes starting at 0x7ffcfddbeb08..
GPGPU-Sim PTX: Setting up arguments for 4 bytes starting at 0x7ffcfddbeb04..
GPGPU-Sim PTX: Setting up arguments for 4 bytes starting at 0x7ffcfddbeb00..
GPGPU-Sim PTX: Setting up arguments for 4 bytes starting at 0x7ffcfddbeafc..
GPGPU-Sim PTX: Setting up arguments for 4 bytes starting at 0x7ffcfddbeaf8..
GPGPU-Sim PTX: Setting up arguments for 4 bytes starting at 0x7ffcfddbeaf4..
GPGPU-Sim PTX: Setting up arguments for 4 bytes starting at 0x7ffcfddbeaf0..
GPGPU-Sim PTX: Setting up arguments for 4 bytes starting at 0x7ffcfddbeaec..

GPGPU-Sim PTX: cudaLaunch for 0x0x576ebf307865 (mode=performance simulation) on stream 0
GPGPU-Sim PTX: PDOM analysis already done for _Z11hotspotOpt1PfS_S_fiiifffffff 
GPGPU-Sim PTX: pushing kernel '_Z11hotspotOpt1PfS_S_fiiifffffff' to stream 0, gridDim= (8,128,1) blockDim = (64,4,1) 
GPGPU-Sim uArch: Shader 4 bind to kernel 2 '_Z11hotspotOpt1PfS_S_fiiifffffff'
GPGPU-Sim uArch: Shader 5 bind to kernel 2 '_Z11hotspotOpt1PfS_S_fiiifffffff'
GPGPU-Sim uArch: Shader 6 bind to kernel 2 '_Z11hotspotOpt1PfS_S_fiiifffffff'
GPGPU-Sim uArch: Shader 7 bind to kernel 2 '_Z11hotspotOpt1PfS_S_fiiifffffff'
GPGPU-Sim uArch: Shader 8 bind to kernel 2 '_Z11hotspotOpt1PfS_S_fiiifffffff'
GPGPU-Sim uArch: Shader 9 bind to kernel 2 '_Z11hotspotOpt1PfS_S_fiiifffffff'
GPGPU-Sim uArch: Shader 10 bind to kernel 2 '_Z11hotspotOpt1PfS_S_fiiifffffff'
GPGPU-Sim uArch: Shader 11 bind to kernel 2 '_Z11hotspotOpt1PfS_S_fiiifffffff'
GPGPU-Sim uArch: Shader 12 bind to kernel 2 '_Z11hotspotOpt1PfS_S_fiiifffffff'
GPGPU-Sim uArch: Shader 13 bind to kernel 2 '_Z11hotspotOpt1PfS_S_fiiifffffff'
GPGPU-Sim uArch: Shader 14 bind to kernel 2 '_Z11hotspotOpt1PfS_S_fiiifffffff'
GPGPU-Sim uArch: Shader 0 bind to kernel 2 '_Z11hotspotOpt1PfS_S_fiiifffffff'
GPGPU-Sim uArch: Shader 1 bind to kernel 2 '_Z11hotspotOpt1PfS_S_fiiifffffff'
GPGPU-Sim uArch: Shader 2 bind to kernel 2 '_Z11hotspotOpt1PfS_S_fiiifffffff'
GPGPU-Sim uArch: Shader 3 bind to kernel 2 '_Z11hotspotOpt1PfS_S_fiiifffffff'
Destroy streams for kernel 2: size 0
kernel_name = _Z11hotspotOpt1PfS_S_fiiifffffff 
kernel_launch_uid = 2 
kernel_stream_id = 1656
gpu_sim_cycle = 255824
gpu_sim_insn = 104595456
gpu_ipc =     408.8571
gpu_tot_sim_cycle = 512866
gpu_tot_sim_insn = 209190912
gpu_tot_ipc =     407.8861
gpu_tot_issued_cta = 2048
gpu_occupancy = 60.5566% 
gpu_tot_occupancy = 60.4700% 
max_total_param_size = 0
gpu_stall_dramfull = 263
gpu_stall_icnt2sh    = 152
partiton_level_parallism =       1.4079
partiton_level_parallism_total  =       1.4061
partiton_level_parallism_util =       1.8194
partiton_level_parallism_util_total  =       1.8191
L2_BW  =     126.1462 GB/Sec
L2_BW_total  =     125.9831 GB/Sec
gpu_total_sim_rate=111986

========= Core cache stats =========
L1I_cache:
	L1I_total_cache_accesses = 3342336
	L1I_total_cache_misses = 3242
	L1I_total_cache_miss_rate = 0.0010
	L1I_total_cache_pending_hits = 0
	L1I_total_cache_reservation_fails = 0
L1C_cache:
	L1C_total_cache_accesses = 229376
	L1C_total_cache_misses = 807
	L1C_total_cache_miss_rate = 0.0035
	L1C_total_cache_pending_hits = 0
	L1C_total_cache_reservation_fails = 4460
L1T_cache:
	L1T_total_cache_accesses = 0
	L1T_total_cache_misses = 0
	L1T_total_cache_pending_hits = 0
	L1T_total_cache_reservation_fails = 0

Total_core_cache_stats:
	Total_core_cache_stats_breakdown[GLOBAL_ACC_R][HIT] = 168249
	Total_core_cache_stats_breakdown[GLOBAL_ACC_R][HIT_RESERVED] = 53213
	Total_core_cache_stats_breakdown[GLOBAL_ACC_R][MISS] = 294634
	Total_core_cache_stats_breakdown[GLOBAL_ACC_R][RESERVATION_FAIL] = 618449
	Total_core_cache_stats_breakdown[GLOBAL_ACC_R][SECTOR_MISS] = 0
	Total_core_cache_stats_breakdown[GLOBAL_ACC_R][MSHR_HIT] = 53213
	Total_core_cache_stats_breakdown[LOCAL_ACC_R][HIT] = 0
	Total_core_cache_stats_breakdown[LOCAL_ACC_R][HIT_RESERVED] = 0
	Total_core_cache_stats_breakdown[LOCAL_ACC_R][MISS] = 0
	Total_core_cache_stats_breakdown[LOCAL_ACC_R][RESERVATION_FAIL] = 0
	Total_core_cache_stats_breakdown[LOCAL_ACC_R][SECTOR_MISS] = 0
	Total_core_cache_stats_breakdown[LOCAL_ACC_R][MSHR_HIT] = 0
	Total_core_cache_stats_breakdown[CONST_ACC_R][HIT] = 114688
	Total_core_cache_stats_breakdown[CONST_ACC_R][HIT_RESERVED] = 0
	Total_core_cache_stats_breakdown[CONST_ACC_R][MISS] = 0
	Total_core_cache_stats_breakdown[CONST_ACC_R][RESERVATION_FAIL] = 0
	Total_core_cache_stats_breakdown[CONST_ACC_R][SECTOR_MISS] = 0
	Total_core_cache_stats_breakdown[CONST_ACC_R][MSHR_HIT] = 0
	Total_core_cache_stats_breakdown[TEXTURE_ACC_R][HIT] = 0
	Total_core_cache_stats_breakdown[TEXTURE_ACC_R][HIT_RESERVED] = 0
	Total_core_cache_stats_breakdown[TEXTURE_ACC_R][MISS] = 0
	Total_core_cache_stats_breakdown[TEXTURE_ACC_R][RESERVATION_FAIL] = 0
	Total_core_cache_stats_breakdown[TEXTURE_ACC_R][SECTOR_MISS] = 0
	Total_core_cache_stats_breakdown[TEXTURE_ACC_R][MSHR_HIT] = 0
	Total_core_cache_stats_breakdown[GLOBAL_ACC_W][HIT] = 0
	Total_core_cache_stats_breakdown[GLOBAL_ACC_W][HIT_RESERVED] = 0
	Total_core_cache_stats_breakdown[GLOBAL_ACC_W][MISS] = 65536
	Total_core_cache_stats_breakdown[GLOBAL_ACC_W][RESERVATION_FAIL] = 0
	Total_core_cache_stats_breakdown[GLOBAL_ACC_W][SECTOR_MISS] = 0
	Total_core_cache_stats_breakdown[GLOBAL_ACC_W][MSHR_HIT] = 0
	Total_core_cache_stats_breakdown[LOCAL_ACC_W][HIT] = 0
	Total_core_cache_stats_breakdown[LOCAL_ACC_W][HIT_RESERVED] = 0
	Total_core_cache_stats_breakdown[LOCAL_ACC_W][MISS] = 0
	Total_core_cache_stats_breakdown[LOCAL_ACC_W][RESERVATION_FAIL] = 0
	Total_core_cache_stats_breakdown[LOCAL_ACC_W][SECTOR_MISS] = 0
	Total_core_cache_stats_breakdown[LOCAL_ACC_W][MSHR_HIT] = 0
	Total_core_cache_stats_breakdown[L1_WRBK_ACC][HIT] = 0
	Total_core_cache_stats_breakdown[L1_WRBK_ACC][HIT_RESERVED] = 0
	Total_core_cache_stats_breakdown[L1_WRBK_ACC][MISS] = 0
	Total_core_cache_stats_breakdown[L1_WRBK_ACC][RESERVATION_FAIL] = 0
	Total_core_cache_stats_breakdown[L1_WRBK_ACC][SECTOR_MISS] = 0
	Total_core_cache_stats_breakdown[L1_WRBK_ACC][MSHR_HIT] = 0
	Total_core_cache_stats_breakdown[L2_WRBK_ACC][HIT] = 0
	Total_core_cache_stats_breakdown[L2_WRBK_ACC][HIT_RESERVED] = 0
	Total_core_cache_stats_breakdown[L2_WRBK_ACC][MISS] = 0
	Total_core_cache_stats_breakdown[L2_WRBK_ACC][RESERVATION_FAIL] = 0
	Total_core_cache_stats_breakdown[L2_WRBK_ACC][SECTOR_MISS] = 0
	Total_core_cache_stats_breakdown[L2_WRBK_ACC][MSHR_HIT] = 0
	Total_core_cache_stats_breakdown[INST_ACC_R][HIT] = 1671168
	Total_core_cache_stats_breakdown[INST_ACC_R][HIT_RESERVED] = 0
	Total_core_cache_stats_breakdown[INST_ACC_R][MISS] = 0
	Total_core_cache_stats_breakdown[INST_ACC_R][RESERVATION_FAIL] = 0
	Total_core_cache_stats_breakdown[INST_ACC_R][SECTOR_MISS] = 0
	Total_core_cache_stats_breakdown[INST_ACC_R][MSHR_HIT] = 0
	Total_core_cache_stats_breakdown[L1_WR_ALLOC_R][HIT] = 0
	Total_core_cache_stats_breakdown[L1_WR_ALLOC_R][HIT_RESERVED] = 0
	Total_core_cache_stats_breakdown[L1_WR_ALLOC_R][MISS] = 0
	Total_core_cache_stats_breakdown[L1_WR_ALLOC_R][RESERVATION_FAIL] = 0
	Total_core_cache_stats_breakdown[L1_WR_ALLOC_R][SECTOR_MISS] = 0
	Total_core_cache_stats_breakdown[L1_WR_ALLOC_R][MSHR_HIT] = 0
	Total_core_cache_stats_breakdown[L2_WR_ALLOC_R][HIT] = 0
	Total_core_cache_stats_breakdown[L2_WR_ALLOC_R][HIT_RESERVED] = 0
	Total_core_cache_stats_breakdown[L2_WR_ALLOC_R][MISS] = 0
	Total_core_cache_stats_breakdown[L2_WR_ALLOC_R][RESERVATION_FAIL] = 0
	Total_core_cache_stats_breakdown[L2_WR_ALLOC_R][SECTOR_MISS] = 0
	Total_core_cache_stats_breakdown[L2_WR_ALLOC_R][MSHR_HIT] = 0
	Total_core_cache_stats_breakdown[GLOBAL_ACC_R][TOTAL_ACCESS] = 516096
	Total_core_cache_stats_breakdown[CONST_ACC_R][TOTAL_ACCESS] = 114688
	Total_core_cache_stats_breakdown[GLOBAL_ACC_W][TOTAL_ACCESS] = 65536
	Total_core_cache_stats_breakdown[INST_ACC_R][TOTAL_ACCESS] = 1671168

Total_core_cache_fail_stats:
	Total_core_cache_fail_stats_breakdown[GLOBAL_ACC_R][LINE_ALLOC_FAIL] = 618443
	Total_core_cache_fail_stats_breakdown[GLOBAL_ACC_R][MISS_QUEUE_FULL] = 6
ctas_completed 2048, Shader 0 warp_id issue ditsribution:
warp_id:
0, 1, 2, 3, 4, 5, 6, 7, 8, 9, 10, 11, 12, 13, 14, 15, 16, 17, 18, 19, 20, 21, 22, 23, 24, 25, 26, 27, 28, 29, 30, 31, 
distro:
13600, 13600, 13600, 13600, 13600, 13600, 13600, 13600, 13600, 13600, 13600, 13600, 13600, 13600, 13600, 13600, 13600, 13600, 13600, 13600, 13600, 13600, 13600, 13600, 13200, 13200, 13200, 13200, 13200, 13200, 13200, 13200, 
gpgpu_n_tot_thrd_icount = 209715200
gpgpu_n_tot_w_icount = 6553600
gpgpu_n_stall_shd_mem = 266508
gpgpu_n_mem_read_local = 0
gpgpu_n_mem_write_local = 0
gpgpu_n_mem_read_global = 589884
gpgpu_n_mem_write_global = 131072
gpgpu_n_mem_texture = 0
gpgpu_n_mem_const = 30
gpgpu_n_load_insn  = 25165824
gpgpu_n_store_insn = 4194304
gpgpu_n_shmem_insn = 0
gpgpu_n_sstarr_insn = 0
gpgpu_n_tex_insn = 0
gpgpu_n_const_mem_insn = 0
gpgpu_n_param_mem_insn = 7340032
gpgpu_n_shmem_bkconflict = 0
gpgpu_n_l1cache_bkconflict = 16288
gpgpu_n_intrawarp_mshr_merge = 0
gpgpu_n_cmem_portconflict = 4460
gpgpu_stall_shd_mem[c_mem][resource_stall] = 4460
gpgpu_stall_shd_mem[s_mem][bk_conf] = 0
gpgpu_stall_shd_mem[gl_mem][resource_stall] = 16288
gpgpu_stall_shd_mem[gl_mem][coal_stall] = 245760
gpgpu_stall_shd_mem[gl_mem][data_port_stall] = 0
gpu_reg_bank_conflict_stalls = 0
Warp Occupancy Distribution:
[...]

------------------------------------------------------------------------

Row_Buffer_Locality = 0.786971
Row_Buffer_Locality_read = 0.831005
Row_Buffer_Locality_write = 0.430750
Bank_Level_Parallism = 4.826555
Bank_Level_Parallism_Col = 3.773306
Bank_Level_Parallism_Ready = 1.664948
write_to_read_ratio_blp_rw_average = 0.414240
GrpLevelPara = 2.574312 

BW Util details:
bwutil = 0.644120 
total_CMD = 1357877 
util_bw = 874636 
Wasted_Col = 398980 
Wasted_Row = 35719 
Idle = 48542 

BW Util Bottlenecks: 
RCDc_limit = 255921 
RCDWRc_limit = 56229 
WTRc_limit = 226257 
RTWc_limit = 578008 
CCDLc_limit = 220094 
rwq = 0 
CCDLc_limit_alone = 145479 
WTRc_limit_alone = 214348 
RTWc_limit_alone = 515302 

Commands details: 
total_CMD = 1357877 
n_nop = 771263 
Read = 350632 
Write = 0 
L2_Alloc = 0 
L2_WB = 86686 
n_act = 83928 
n_pre = 83912 
n_ref = 0 
n_req = 393975 
total_req = 437318 

Dual Bus Interface Util: 
issued_total_row = 167840 
issued_total_col = 437318 
Row_Bus_Util =  0.123605 
CoL_Bus_Util = 0.322060 
Either_Row_CoL_Bus_Util = 0.432008 
Issued_on_Two_Bus_Simul_Util = 0.013657 
issued_two_Eff = 0.031612 
queue_avg = 12.951102 


dram_util_bins: 0 0 0 0 0 0 0 0 0 0
dram_eff_bins: 0 0 0 0 0 0 0 0 0 0
mrqq: max=64 avg=12.9511
Memory Partition 1: 
Cache L2_bank_002:
MSHR contents

Cache L2_bank_003:
MSHR contents

In Dram Latency Queue (total = 1): 
Ready @ 1028784 -   mf: uid=15527054, sid4294967295:w4294967295, part=1, addr=0xc09fe580, store, size=128, L2_WRBK  status = IN_PARTITION_DRAM_LATENCY_QUEUE (1028684), 
DRAM[1]: 16 bks, busW=4 BL=8 CL=12, tRRD=6 tCCD=2, tRCD=12 tRAS=28 tRP=12 tRC=40
n_cmd=1357877 n_nop=776115 n_act=81057 n_pre=81041 n_ref_event=0 n_req=394016 n_rd=350676 n_rd_L2_A=0 n_write=0 n_wr_bk=86680 bw_util=0.6442
n_activity=1324007 dram_eff=0.6607
bk0: 22088a 983002i bk1: 22040a 994740i bk2: 22112a 987897i bk3: 22216a 993432i bk4: 21940a 987806i bk5: 21992a 999227i bk6: 21896a 978860i bk7: 21912a 997414i bk8: 21896a 982352i bk9: 21784a 997183i bk10: 21760a 995514i bk11: 21764a 995233i bk12: 21832a 977494i bk13: 21880a 991015i bk14: 21800a 987487i bk15: 21764a 992333i 

------------------------------------------------------------------------

Row_Buffer_Locality = 0.794280
Row_Buffer_Locality_read = 0.837237
Row_Buffer_Locality_write = 0.446701
Bank_Level_Parallism = 4.754431
Bank_Level_Parallism_Col = 0.000000
Bank_Level_Parallism_Ready = 1.658339
write_to_read_ratio_blp_rw_average = 0.000000
GrpLevelPara = 0.000000 

BW Util details:
bwutil = 0.644176 
total_CMD = 1357877 
util_bw = 874712 
Wasted_Col = 395321 
Wasted_Row = 37720 
Idle = 50124 

BW Util Bottlenecks: 
RCDc_limit = 247417 
RCDWRc_limit = 55633 
WTRc_limit = 221803 
RTWc_limit = 560385 
CCDLc_limit = 219827 
rwq = 0 
CCDLc_limit_alone = 146565 
WTRc_limit_alone = 209545 
RTWc_limit_alone = 499381 

Commands details: 
total_CMD = 1357877 
n_nop = 776115 
Read = 350676 
Write = 0 
L2_Alloc = 0 
L2_WB = 86680 
n_act = 81057 
n_pre = 81041 
n_ref = 0 
n_req = 394016 
total_req = 437356 

Dual Bus Interface Util: 
issued_total_row = 162098 
issued_total_col = 437356 
Row_Bus_Util =  0.119376 
CoL_Bus_Util = 0.322088 
Either_Row_CoL_Bus_Util = 0.428435 
Issued_on_Two_Bus_Simul_Util = 0.013029 
issued_two_Eff = 0.030411 
queue_avg = 13.004170 


dram_util_bins: 0 0 0 0 0 0 0 0 0 0
dram_eff_bins: 0 0 0 0 0 0 0 0 0 0
mrqq: max=64 avg=13.0042
Memory Partition 2: 
Cache L2_bank_004:
MSHR contents

Cache L2_bank_005:
MSHR contents

In Dram Latency Queue (total = 0): 
DRAM[2]: 16 bks, busW=4 BL=8 CL=12, tRRD=6 tCCD=2, tRCD=12 tRAS=28 tRP=12 tRC=40
n_cmd=1357877 n_nop=769858 n_act=84715 n_pre=84699 n_ref_event=0 n_req=393902 n_rd=350556 n_rd_L2_A=0 n_write=0 n_wr_bk=86692 bw_util=0.644
n_activity=1324716 dram_eff=0.6601
bk0: 22088a 988286i bk1: 22052a 982830i bk2: 22088a 986942i bk3: 22092a 978482i bk4: 21940a 994663i bk5: 21964a 980163i bk6: 21908a 979948i bk7: 21864a 972367i bk8: 21892a 983707i bk9: 21760a 972931i bk10: 21760a 987870i bk11: 21772a 988234i bk12: 21896a 982017i bk13: 21904a 972461i bk14: 21768a 981651i bk15: 21808a 980985i 

------------------------------------------------------------------------

Row_Buffer_Locality = 0.784934
Row_Buffer_Locality_read = 0.829454
Row_Buffer_Locality_write = 0.424883
Bank_Level_Parallism = 4.841926
Bank_Level_Parallism_Col = 3.774494
Bank_Level_Parallism_Ready = 1.666073
write_to_read_ratio_blp_rw_average = 0.414365
GrpLevelPara = 2.577996 

BW Util details:
bwutil = 0.644017 
total_CMD = 1357877 
util_bw = 874496 
Wasted_Col = 399938 
Wasted_Row = 35496 
Idle = 47947 

BW Util Bottlenecks: 
RCDc_limit = 257776 
RCDWRc_limit = 56775 
WTRc_limit = 228413 
RTWc_limit = 578130 
CCDLc_limit = 219298 
rwq = 0 
CCDLc_limit_alone = 145323 
WTRc_limit_alone = 216249 
RTWc_limit_alone = 516319 

Commands details: 
total_CMD = 1357877 
n_nop = 769858 
Read = 350556 
Write = 0 
L2_Alloc = 0 
L2_WB = 86692 
n_act = 84715 
n_pre = 84699 
n_ref = 0 
n_req = 393902 
total_req = 437248 

Dual Bus Interface Util: 
issued_total_row = 169414 
issued_total_col = 437248 
Row_Bus_Util =  0.124764 
CoL_Bus_Util = 0.322009 
Either_Row_CoL_Bus_Util = 0.433043 
Issued_on_Two_Bus_Simul_Util = 0.013730 
issued_two_Eff = 0.031705 
queue_avg = 12.864152 


dram_util_bins: 0 0 0 0 0 0 0 0 0 0
dram_eff_bins: 0 0 0 0 0 0 0 0 0 0
mrqq: max=64 avg=12.8642
Memory Partition 3: 
Cache L2_bank_006:
MSHR contents

Cache L2_bank_007:
MSHR contents

In Dram Latency Queue (total = 0): 
DRAM[3]: 16 bks, busW=4 BL=8 CL=12, tRRD=6 tCCD=2, tRCD=12 tRAS=28 tRP=12 tRC=40
n_cmd=1357877 n_nop=773899 n_act=82135 n_pre=82119 n_ref_event=0 n_req=393979 n_rd=350632 n_rd_L2_A=0 n_write=0 n_wr_bk=86694 bw_util=0.6441
n_activity=1324737 dram_eff=0.6602
bk0: 22060a 997338i bk1: 22072a 983339i bk2: 22136a 998887i bk3: 22084a 978993i bk4: 21960a 998602i bk5: 21968a 986435i bk6: 21904a 996329i bk7: 21896a 968062i bk8: 21912a 995871i bk9: 21760a 973017i bk10: 21764a 997750i bk11: 21764a 986417i bk12: 21880a 995338i bk13: 21908a 976927i bk14: 21764a 994478i bk15: 21800a 981051i 

------------------------------------------------------------------------

Row_Buffer_Locality = 0.791524
Row_Buffer_Locality_read = 0.835101
Row_Buffer_Locality_write = 0.439038
Bank_Level_Parallism = 4.774807
Bank_Level_Parallism_Col = 3.750293
Bank_Level_Parallism_Ready = 1.664103
write_to_read_ratio_blp_rw_average = 0.414446
GrpLevelPara = 2.556517 

BW Util details:
bwutil = 0.644132 
total_CMD = 1357877 
util_bw = 874652 
Wasted_Col = 397720 
Wasted_Row = 36475 
Idle = 49030 

BW Util Bottlenecks: 
RCDc_limit = 250745 
RCDWRc_limit = 56274 
WTRc_limit = 221150 
RTWc_limit = 564801 
CCDLc_limit = 221478 
rwq = 0 
CCDLc_limit_alone = 147293 
WTRc_limit_alone = 209116 
RTWc_limit_alone = 502650 

Commands details: 
total_CMD = 1357877 
n_nop = 773899 
Read = 350632 
Write = 0 
L2_Alloc = 0 
L2_WB = 86694 
n_act = 82135 
n_pre = 82119 
n_ref = 0 
n_req = 393979 
total_req = 437326 

Dual Bus Interface Util: 
issued_total_row = 164254 
issued_total_col = 437326 
Row_Bus_Util =  0.120964 
CoL_Bus_Util = 0.322066 
Either_Row_CoL_Bus_Util = 0.430067 
Issued_on_Two_Bus_Simul_Util = 0.012963 
issued_two_Eff = 0.030142 
queue_avg = 12.981865 


dram_util_bins: 0 0 0 0 0 0 0 0 0 0
dram_eff_bins: 0 0 0 0 0 0 0 0 0 0
mrqq: max=64 avg=12.9819
Memory Partition 4: 
Cache L2_bank_008:
MSHR contents

Cache L2_bank_009:
MSHR contents

In Dram Latency Queue (total = 0): 
DRAM[4]: 16 bks, busW=4 BL=8 CL=12, tRRD=6 tCCD=2, tRCD=12 tRAS=28 tRP=12 tRC=40
n_cmd=1357877 n_nop=769702 n_act=84625 n_pre=84609 n_ref_event=0 n_req=393901 n_rd=350548 n_rd_L2_A=0 n_write=0 n_wr_bk=86706 bw_util=0.644
n_activity=1325127 dram_eff=0.6599
bk0: 22072a 989668i bk1: 22112a 985757i bk2: 22136a 984991i bk3: 22096a 984957i bk4: 21984a 987794i bk5: 21952a 978463i bk6: 21904a 976362i bk7: 21896a 972803i bk8: 21800a 979598i bk9: 21760a 974546i bk10: 21768a 989541i bk11: 21764a 983180i bk12: 21816a 981218i bk13: 21928a 978733i bk14: 21764a 978821i bk15: 21796a 982097i 

------------------------------------------------------------------------

Row_Buffer_Locality = 0.785162
Row_Buffer_Locality_read = 0.829624
Row_Buffer_Locality_write = 0.425645
Bank_Level_Parallism = 4.846803
Bank_Level_Parallism_Col = 3.777680
Bank_Level_Parallism_Ready = 1.664066
write_to_read_ratio_blp_rw_average = 0.414256
GrpLevelPara = 2.579993 

BW Util details:
bwutil = 0.644026 
total_CMD = 1357877 
util_bw = 874508 
Wasted_Col = 399873 
Wasted_Row = 35166 
Idle = 48330 

BW Util Bottlenecks: 
RCDc_limit = 257491 
RCDWRc_limit = 57165 
WTRc_limit = 230057 
RTWc_limit = 578796 
CCDLc_limit = 218177 
rwq = 0 
CCDLc_limit_alone = 144216 
WTRc_limit_alone = 217692 
RTWc_limit_alone = 517200 

Commands details: 
total_CMD = 1357877 
n_nop = 769702 
Read = 350548 
Write = 0 
L2_Alloc = 0 
L2_WB = 86706 
n_act = 84625 
n_pre = 84609 
n_ref = 0 
n_req = 393901 
total_req = 437254 

Dual Bus Interface Util: 
issued_total_row = 169234 
issued_total_col = 437254 
Row_Bus_Util =  0.124631 
CoL_Bus_Util = 0.322013 
Either_Row_CoL_Bus_Util = 0.433158 
Issued_on_Two_Bus_Simul_Util = 0.013486 
issued_two_Eff = 0.031135 
queue_avg = 12.951579 


dram_util_bins: 0 0 0 0 0 0 0 0 0 0
dram_eff_bins: 0 0 0 0 0 0 0 0 0 0
mrqq: max=64 avg=12.9516
Memory Partition 5: 
Cache L2_bank_010:
MSHR contents

Cache L2_bank_011:
MSHR contents

In Dram Latency Queue (total = 0): 
DRAM[5]: 16 bks, busW=4 BL=8 CL=12, tRRD=6 tCCD=2, tRCD=12 tRAS=28 tRP=12 tRC=40
n_cmd=1357877 n_nop=774649 n_act=81713 n_pre=81697 n_ref_event=4567768403222847415 n_req=394002 n_rd=350652 n_rd_L2_A=0 n_write=0 n_wr_bk=86700 bw_util=0.6442
n_activity=1324232 dram_eff=0.6605
bk0: 22068a 988217i bk1: 22044a 988764i bk2: 22160a 992564i bk3: 22136a 991152i bk4: 21964a 989305i bk5: 21972a 992364i bk6: 21908a 979731i bk7: 21904a 987167i bk8: 21816a 984620i bk9: 21772a 986908i bk10: 21772a 994927i bk11: 21760a 993889i bk12: 21848a 984262i bk13: 21960a 987922i bk14: 21768a 985032i bk15: 21800a 990393i 

------------------------------------------------------------------------

Row_Buffer_Locality = 0.792608
Row_Buffer_Locality_read = 0.836276
Row_Buffer_Locality_write = 0.439377
Bank_Level_Parallism = 4.769625
Bank_Level_Parallism_Col = 3.750910
Bank_Level_Parallism_Ready = 1.657781
write_to_read_ratio_blp_rw_average = 0.416187
GrpLevelPara = 2.562512 

BW Util details:
bwutil = 0.644170 
total_CMD = 1357877 
util_bw = 874704 
Wasted_Col = 397204 
Wasted_Row = 36584 
Idle = 49385 

BW Util Bottlenecks: 
RCDc_limit = 248803 
RCDWRc_limit = 55222 
WTRc_limit = 220012 
RTWc_limit = 568739 
CCDLc_limit = 221329 
rwq = 0 
CCDLc_limit_alone = 147348 
WTRc_limit_alone = 208173 
RTWc_limit_alone = 506597 

Commands details: 
total_CMD = 1357877 
n_nop = 774649 
Read = 350652 
Write = 0 
L2_Alloc = 0 
L2_WB = 86700 
n_act = 81713 
n_pre = 81697 
n_ref = 4567768403222847415 
n_req = 394002 
total_req = 437352 

Dual Bus Interface Util: 
issued_total_row = 163410 
issued_total_col = 437352 
Row_Bus_Util =  0.120342 
CoL_Bus_Util = 0.322085 
Either_Row_CoL_Bus_Util = 0.429515 
Issued_on_Two_Bus_Simul_Util = 0.012913 
issued_two_Eff = 0.030064 
queue_avg = 12.944548 


dram_util_bins: 0 0 0 0 0 0 0 0 0 0
dram_eff_bins: 0 0 0 0 0 0 0 0 0 0
mrqq: max=64 avg=12.9445

========= L2 cache stats =========
L2_cache_bank[0]: Access = 470036, Miss = 262656, Miss_rate = 0.559, Pending_hits = 7519, Reservation_fails = 742
L2_cache_bank[1]: Access = 488836, Miss = 262728, Miss_rate = 0.537, Pending_hits = 8098, Reservation_fails = 184
L2_cache_bank[2]: Access = 490292, Miss = 262700, Miss_rate = 0.536, Pending_hits = 8285, Reservation_fails = 368
L2_cache_bank[3]: Access = 473412, Miss = 262728, Miss_rate = 0.555, Pending_hits = 6356, Reservation_fails = 220
L2_cache_bank[4]: Access = 488984, Miss = 262716, Miss_rate = 0.537, Pending_hits = 8353, Reservation_fails = 393
L2_cache_bank[5]: Access = 469884, Miss = 262608, Miss_rate = 0.559, Pending_hits = 7688, Reservation_fails = 197
L2_cache_bank[6]: Access = 473316, Miss = 262756, Miss_rate = 0.555, Pending_hits = 6235, Reservation_fails = 479
L2_cache_bank[7]: Access = 490200, Miss = 262644, Miss_rate = 0.536, Pending_hits = 8269, Reservation_fails = 186
L2_cache_bank[8]: Access = 469876, Miss = 262620, Miss_rate = 0.559, Pending_hits = 7591, Reservation_fails = 331
L2_cache_bank[9]: Access = 488504, Miss = 262696, Miss_rate = 0.538, Pending_hits = 8174, Reservation_fails = 185
L2_cache_bank[10]: Access = 490852, Miss = 262680, Miss_rate = 0.535, Pending_hits = 8211, Reservation_fails = 161
L2_cache_bank[11]: Access = 472808, Miss = 262740, Miss_rate = 0.556, Pending_hits = 6493, Reservation_fails = 211
L2_total_cache_accesses = 5767000
L2_total_cache_misses = 3152272
L2_total_cache_miss_rate = 0.5466
L2_total_cache_pending_hits = 91272
L2_total_cache_reservation_fails = 3657
L2_total_cache_breakdown:
	L2_cache_stats_breakdown[GLOBAL_ACC_R][HIT] = 1893018
	L2_cache_stats_breakdown[GLOBAL_ACC_R][HIT_RESERVED] = 68562
	L2_cache_stats_breakdown[GLOBAL_ACC_R][MISS] = 394412
	L2_cache_stats_breakdown[GLOBAL_ACC_R][RESERVATION_FAIL] = 1730
	L2_cache_stats_breakdown[GLOBAL_ACC_R][SECTOR_MISS] = 1183236
	L2_cache_stats_breakdown[GLOBAL_ACC_R][MSHR_HIT] = 68562
	L2_cache_stats_breakdown[LOCAL_ACC_R][HIT] = 0
	L2_cache_stats_breakdown[LOCAL_ACC_R][HIT_RESERVED] = 0
	L2_cache_stats_breakdown[LOCAL_ACC_R][MISS] = 0
	L2_cache_stats_breakdown[LOCAL_ACC_R][RESERVATION_FAIL] = 0
	L2_cache_stats_breakdown[LOCAL_ACC_R][SECTOR_MISS] = 0
	L2_cache_stats_breakdown[LOCAL_ACC_R][MSHR_HIT] = 0
	L2_cache_stats_breakdown[CONST_ACC_R][HIT] = 38
	L2_cache_stats_breakdown[CONST_ACC_R][HIT_RESERVED] = 18
	L2_cache_stats_breakdown[CONST_ACC_R][MISS] = 1
	L2_cache_stats_breakdown[CONST_ACC_R][RESERVATION_FAIL] = 331
	L2_cache_stats_breakdown[CONST_ACC_R][SECTOR_MISS] = 3
	L2_cache_stats_breakdown[CONST_ACC_R][MSHR_HIT] = 18
	L2_cache_stats_breakdown[TEXTURE_ACC_R][HIT] = 0
	L2_cache_stats_breakdown[TEXTURE_ACC_R][HIT_RESERVED] = 0
	L2_cache_stats_breakdown[TEXTURE_ACC_R][MISS] = 0
	L2_cache_stats_breakdown[TEXTURE_ACC_R][RESERVATION_FAIL] = 0
	L2_cache_stats_breakdown[TEXTURE_ACC_R][SECTOR_MISS] = 0
	L2_cache_stats_breakdown[TEXTURE_ACC_R][MSHR_HIT] = 0
	L2_cache_stats_breakdown[GLOBAL_ACC_W][HIT] = 0
	L2_cache_stats_breakdown[GLOBAL_ACC_W][HIT_RESERVED] = 0
	L2_cache_stats_breakdown[GLOBAL_ACC_W][MISS] = 196608
	L2_cache_stats_breakdown[GLOBAL_ACC_W][RESERVATION_FAIL] = 0
	L2_cache_stats_breakdown[GLOBAL_ACC_W][SECTOR_MISS] = 589824
	L2_cache_stats_breakdown[GLOBAL_ACC_W][MSHR_HIT] = 0
	L2_cache_stats_breakdown[LOCAL_ACC_W][HIT] = 0
	L2_cache_stats_breakdown[LOCAL_ACC_W][HIT_RESERVED] = 0
	L2_cache_stats_breakdown[LOCAL_ACC_W][MISS] = 0
	L2_cache_stats_breakdown[LOCAL_ACC_W][RESERVATION_FAIL] = 0
	L2_cache_stats_breakdown[LOCAL_ACC_W][SECTOR_MISS] = 0
	L2_cache_stats_breakdown[LOCAL_ACC_W][MSHR_HIT] = 0
	L2_cache_stats_breakdown[L1_WRBK_ACC][HIT] = 0
	L2_cache_stats_breakdown[L1_WRBK_ACC][HIT_RESERVED] = 0
	L2_cache_stats_breakdown[L1_WRBK_ACC][MISS] = 0
	L2_cache_stats_breakdown[L1_WRBK_ACC][RESERVATION_FAIL] = 0
	L2_cache_stats_breakdown[L1_WRBK_ACC][SECTOR_MISS] = 0
	L2_cache_stats_breakdown[L1_WRBK_ACC][MSHR_HIT] = 0
	L2_cache_stats_breakdown[L2_WRBK_ACC][HIT] = 0
	L2_cache_stats_breakdown[L2_WRBK_ACC][HIT_RESERVED] = 0
	L2_cache_stats_breakdown[L2_WRBK_ACC][MISS] = 0
	L2_cache_stats_breakdown[L2_WRBK_ACC][RESERVATION_FAIL] = 0
	L2_cache_stats_breakdown[L2_WRBK_ACC][SECTOR_MISS] = 0
	L2_cache_stats_breakdown[L2_WRBK_ACC][MSHR_HIT] = 0
	L2_cache_stats_breakdown[INST_ACC_R][HIT] = 448
	L2_cache_stats_breakdown[INST_ACC_R][HIT_RESERVED] = 108
	L2_cache_stats_breakdown[INST_ACC_R][MISS] = 11
	L2_cache_stats_breakdown[INST_ACC_R][RESERVATION_FAIL] = 988
	L2_cache_stats_breakdown[INST_ACC_R][SECTOR_MISS] = 33
	L2_cache_stats_breakdown[INST_ACC_R][MSHR_HIT] = 108
	L2_cache_stats_breakdown[L1_WR_ALLOC_R][HIT] = 0
	L2_cache_stats_breakdown[L1_WR_ALLOC_R][HIT_RESERVED] = 0
	L2_cache_stats_breakdown[L1_WR_ALLOC_R][MISS] = 0
	L2_cache_stats_breakdown[L1_WR_ALLOC_R][RESERVATION_FAIL] = 0
	L2_cache_stats_breakdown[L1_WR_ALLOC_R][SECTOR_MISS] = 0
	L2_cache_stats_breakdown[L1_WR_ALLOC_R][MSHR_HIT] = 0
	L2_cache_stats_breakdown[L2_WR_ALLOC_R][HIT] = 0
	L2_cache_stats_breakdown[L2_WR_ALLOC_R][HIT_RESERVED] = 0
	L2_cache_stats_breakdown[L2_WR_ALLOC_R][MISS] = 0
	L2_cache_stats_breakdown[L2_WR_ALLOC_R][RESERVATION_FAIL] = 0
	L2_cache_stats_breakdown[L2_WR_ALLOC_R][SECTOR_MISS] = 0
	L2_cache_stats_breakdown[L2_WR_ALLOC_R][MSHR_HIT] = 0
	L2_cache_stats_breakdown[GLOBAL_ACC_R][TOTAL_ACCESS] = 3539228
	L2_cache_stats_breakdown[CONST_ACC_R][TOTAL_ACCESS] = 60
	L2_cache_stats_breakdown[GLOBAL_ACC_W][TOTAL_ACCESS] = 786432
	L2_cache_stats_breakdown[INST_ACC_R][TOTAL_ACCESS] = 600
L2_total_cache_reservation_fail_breakdown:
	L2_cache_stats_fail_breakdown[GLOBAL_ACC_R][MISS_QUEUE_FULL] = 1730
	L2_cache_stats_fail_breakdown[CONST_ACC_R][MSHR_MERGE_ENRTY_FAIL] = 331
	L2_cache_stats_fail_breakdown[INST_ACC_R][MSHR_MERGE_ENRTY_FAIL] = 988
L2_cache_data_port_util = 0.220
L2_cache_fill_port_util = 0.170

icnt_total_pkts_mem_to_simt=5767000
icnt_total_pkts_simt_to_mem=2228197
LD_mem_lat_dist  0 0 0 0 0 0 0 0 0 0 0 0 0 0 0 0 0 0 0 0 0 0 0 0 0 0 0
ST_mem_lat_dist  0 0 0 0 0 0 0 0 0 0 0 0 0 0 0 0 0 0 0 0 0 0 0 0 0 0 0
----------------------------Interconnect-DETAILS--------------------------------
Class 0:
Packet latency average = 12.107
	minimum = 5
	maximum = 112
Network latency average = 12.044
	minimum = 5
	maximum = 112
Slowest packet = 5662304
Flit latency average = 11.2829
	minimum = 5
	maximum = 112
Slowest flit = 6278633
Fragmentation average = 0
	minimum = 0
	maximum = 0
Injected packet rate average = 0.25711
	minimum = 0.0885671 (at node 13)
	maximum = 0.471162 (at node 25)
Accepted packet rate average = 0.25711
	minimum = 0.112838 (at node 23)
	maximum = 0.382425 (at node 10)
Injected flit rate average = 0.28515
	minimum = 0.138842 (at node 13)
	maximum = 0.471162 (at node 25)
Accepted flit rate average= 0.28515
	minimum = 0.175914 (at node 23)
	maximum = 0.382425 (at node 10)
Injected packet length average = 1.10906
Accepted packet length average = 1.10906
Total in-flight flits = 0 (0 measured)
====== Overall Traffic Statistics ======
====== Traffic class 0 ======
Packet latency average = 12.2298 (4 samples)
	minimum = 5 (4 samples)
	maximum = 147.75 (4 samples)
Network latency average = 12.1672 (4 samples)
	minimum = 5 (4 samples)
	maximum = 144.5 (4 samples)
Flit latency average = 11.394 (4 samples)
	minimum = 5 (4 samples)
	maximum = 144.5 (4 samples)
Fragmentation average = 0 (4 samples)
	minimum = 0 (4 samples)
	maximum = 0 (4 samples)
Injected packet rate average = 0.259552 (4 samples)
	minimum = 0.0901361 (4 samples)
	maximum = 0.477555 (4 samples)
Accepted packet rate average = 0.259552 (4 samples)
	minimum = 0.114009 (4 samples)
	maximum = 0.383083 (4 samples)
Injected flit rate average = 0.287867 (4 samples)
	minimum = 0.140588 (4 samples)
	maximum = 0.477555 (4 samples)
Accepted flit rate average = 0.287867 (4 samples)
	minimum = 0.177721 (4 samples)
	maximum = 0.383083 (4 samples)
Injected packet size average = 1.10909 (4 samples)
Accepted packet size average = 1.10909 (4 samples)
Hops average = 1 (4 samples)
----------------------------END-of-Interconnect-DETAILS-------------------------


gpgpu_simulation_time = 0 days, 0 hrs, 59 min, 20 sec (3560 sec)
gpgpu_simulation_rate = 117522 (inst/sec)
gpgpu_simulation_rate = 288 (cycle/sec)
gpgpu_silicon_slowdown = 2430555x
GPGPU-Sim: synchronize waiting for inactive GPU simulation
GPGPU-Sim API: Stream Manager State
GPGPU-Sim: detected inactive GPU simulation thread
Time: 3554.583 (s)
Accuracy: 1.283636e-05
GPGPU-Sim: *** exit detected ***
