self exe links to: /home/ubuntu/LAB2/apps/LUD_OC/lud.gpu
self exe links to: /home/ubuntu/LAB2/apps/LUD_OC/lud.gpu
10.0


        *** GPGPU-Sim Simulator Version 4.2.0  [build gpgpu-sim_git-commit-a4ce3fe_modified_0.0] ***


GPGPU-Sim PTX: simulation mode 0 (can change with PTX_SIM_MODE_FUNC environment variable:
               1=functional simulation only, 0=detailed performance simulator)
GPGPU-Sim PTX: overriding embedded ptx with ptx file (PTX_SIM_USE_PTX_FILE is set)
GPGPU-Sim: Configuration options:

-save_embedded_ptx                      0 # saves ptx files embedded in binary as <n>.ptx
-keep                                   0 # keep intermediate files created by GPGPU-Sim when interfacing with external programs
-gpgpu_ptx_save_converted_ptxplus                    0 # Saved converted ptxplus to a file
-gpgpu_occupancy_sm_number                   20 # The SM number to pass to ptxas when getting register usage for computing GPU occupancy. This parameter is required in the config.
-ptx_opcode_latency_int      4,13,4,5,145,32 # Opcode latencies for integers <ADD,MAX,MUL,MAD,DIV,SHFL>Default 1,1,19,25,145,32
-ptx_opcode_latency_fp          4,13,4,5,39 # Opcode latencies for single precision floating points <ADD,MAX,MUL,MAD,DIV>Default 1,1,1,1,30
-ptx_opcode_latency_dp         8,19,8,8,330 # Opcode latencies for double precision floating points <ADD,MAX,MUL,MAD,DIV>Default 8,8,8,8,335
-ptx_opcode_latency_sfu                    8 # Opcode latencies for SFU instructionsDefault 8
-ptx_opcode_latency_tesnor                   64 # Opcode latencies for Tensor instructionsDefault 64
-ptx_opcode_initiation_int          1,2,2,1,8,4 # Opcode initiation intervals for integers <ADD,MAX,MUL,MAD,DIV,SHFL>Default 1,1,4,4,32,4
-ptx_opcode_initiation_fp            1,2,1,1,4 # Opcode initiation intervals for single precision floating points <ADD,MAX,MUL,MAD,DIV>Default 1,1,1,1,5
-ptx_opcode_initiation_dp         8,16,8,8,130 # Opcode initiation intervals for double precision floating points <ADD,MAX,MUL,MAD,DIV>Default 8,8,8,8,130
-ptx_opcode_initiation_sfu                    8 # Opcode initiation intervals for sfu instructionsDefault 8
-ptx_opcode_initiation_tensor                   64 # Opcode initiation intervals for tensor instructionsDefault 64
-cdp_latency         7200,8000,100,12000,1600 # CDP API latency <cudaStreamCreateWithFlags, cudaGetParameterBufferV2_init_perWarp, cudaGetParameterBufferV2_perKernel, cudaLaunchDeviceV2_init_perWarp, cudaLaunchDevicV2_perKernel>Default 7200,8000,100,12000,1600
-network_mode                           1 # Interconnection network mode
-inter_config_file   config_fermi_islip.icnt # Interconnection network config file
-icnt_in_buffer_limit                   64 # in_buffer_limit
-icnt_out_buffer_limit                   64 # out_buffer_limit
-icnt_subnets                           2 # subnets
-icnt_arbiter_algo                      1 # arbiter_algo
-icnt_verbose                           0 # inct_verbose
-icnt_grant_cycles                      1 # grant_cycles
-gpgpu_ptx_use_cuobjdump                    1 # Use cuobjdump to extract ptx and sass from binaries
-gpgpu_experimental_lib_support                    0 # Try to extract code from cuda libraries [Broken because of unknown cudaGetExportTable]
-checkpoint_option                      0 #  checkpointing flag (0 = no checkpoint)
-checkpoint_kernel                      1 #  checkpointing during execution of which kernel (1- 1st kernel)
-checkpoint_CTA                         0 #  checkpointing after # of CTA (< less than total CTA)
-resume_option                          0 #  resume flag (0 = no resume)
-resume_kernel                          0 #  Resume from which kernel (1= 1st kernel)
-resume_CTA                             0 #  resume from which CTA 
-checkpoint_CTA_t                       0 #  resume from which CTA 
-checkpoint_insn_Y                      0 #  resume from which CTA 
-gpgpu_ptx_convert_to_ptxplus                    0 # Convert SASS (native ISA) to ptxplus and run ptxplus
-gpgpu_ptx_force_max_capability                   20 # Force maximum compute capability
-gpgpu_ptx_inst_debug_to_file                    0 # Dump executed instructions' debug information to file
-gpgpu_ptx_inst_debug_file       inst_debug.txt # Executed instructions' debug output file
-gpgpu_ptx_inst_debug_thread_uid                    1 # Thread UID for executed instructions' debug output
-gpgpu_simd_model                       1 # 1 = post-dominator
-gpgpu_shader_core_pipeline              1536:32 # shader core pipeline config, i.e., {<nthread>:<warpsize>}
-gpgpu_tex_cache:l1  N:4:128:24,L:R:m:N:L,T:128:4,128:2 # per-shader L1 texture cache  (READ-ONLY) config  {<nsets>:<bsize>:<assoc>,<rep>:<wr>:<alloc>:<wr_alloc>,<mshr>:<N>:<merge>,<mq>:<rf>}
-gpgpu_const_cache:l1 N:64:64:2,L:R:f:N:L,S:2:32,4 # per-shader L1 constant memory cache  (READ-ONLY) config  {<nsets>:<bsize>:<assoc>,<rep>:<wr>:<alloc>:<wr_alloc>,<mshr>:<N>:<merge>,<mq>} 
-gpgpu_cache:il1     N:4:128:4,L:R:f:N:L,S:2:32,4 # shader L1 instruction cache config  {<nsets>:<bsize>:<assoc>,<rep>:<wr>:<alloc>:<wr_alloc>,<mshr>:<N>:<merge>,<mq>} 
-gpgpu_cache:dl1     N:32:128:4,L:L:m:N:H,S:64:8,8 # per-shader L1 data cache config  {<nsets>:<bsize>:<assoc>,<rep>:<wr>:<alloc>:<wr_alloc>,<mshr>:<N>:<merge>,<mq> | none}
-gpgpu_l1_cache_write_ratio                    0 # L1D write ratio
-gpgpu_l1_banks                         1 # The number of L1 cache banks
-gpgpu_l1_banks_byte_interleaving                   32 # l1 banks byte interleaving granularity
-gpgpu_l1_banks_hashing_function                    0 # l1 banks hashing function
-gpgpu_l1_latency                      35 # L1 Hit Latency
-gpgpu_smem_latency                    26 # smem Latency
-gpgpu_cache:dl1PrefL1                 none # per-shader L1 data cache config  {<nsets>:<bsize>:<assoc>,<rep>:<wr>:<alloc>:<wr_alloc>,<mshr>:<N>:<merge>,<mq> | none}
-gpgpu_cache:dl1PrefShared                 none # per-shader L1 data cache config  {<nsets>:<bsize>:<assoc>,<rep>:<wr>:<alloc>:<wr_alloc>,<mshr>:<N>:<merge>,<mq> | none}
-gpgpu_gmem_skip_L1D                    0 # global memory access skip L1D cache (implements -Xptxas -dlcm=cg, default=no skip)
-gpgpu_perfect_mem                      0 # enable perfect memory mode (no cache miss)
-n_regfile_gating_group                    4 # group of lanes that should be read/written together)
-gpgpu_clock_gated_reg_file                    0 # enable clock gated reg file for power calculations
-gpgpu_clock_gated_lanes                    0 # enable clock gated lanes for power calculations
-gpgpu_shader_registers                32768 # Number of registers per shader core. Limits number of concurrent CTAs. (default 8192)
-gpgpu_registers_per_block                 8192 # Maximum number of registers per CTA. (default 8192)
-gpgpu_ignore_resources_limitation                    0 # gpgpu_ignore_resources_limitation (default 0)
-gpgpu_shader_cta                       8 # Maximum number of concurrent CTAs in shader (default 32)
-gpgpu_num_cta_barriers                   16 # Maximum number of named barriers per CTA (default 16)
-gpgpu_n_clusters                      15 # number of processing clusters
-gpgpu_n_cores_per_cluster                    1 # number of simd cores per cluster
-gpgpu_n_cluster_ejection_buffer_size                   32 # number of packets in ejection buffer
-gpgpu_n_ldst_response_buffer_size                    2 # number of response packets in ld/st unit ejection buffer
-gpgpu_shmem_per_block                49152 # Size of shared memory per thread block or CTA (default 48kB)
-gpgpu_shmem_size                   49152 # Size of shared memory per shader core (default 16kB)
-gpgpu_shmem_option                     0 # Option list of shared memory sizes
-gpgpu_unified_l1d_size                    0 # Size of unified data cache(L1D + shared memory) in KB
-gpgpu_adaptive_cache_config                    0 # adaptive_cache_config
-gpgpu_shmem_sizeDefault                49152 # Size of shared memory per shader core (default 16kB)
-gpgpu_shmem_size_PrefL1                16384 # Size of shared memory per shader core (default 16kB)
-gpgpu_shmem_size_PrefShared                16384 # Size of shared memory per shader core (default 16kB)
-gpgpu_shmem_num_banks                   32 # Number of banks in the shared memory in each shader core (default 16)
-gpgpu_shmem_limited_broadcast                    0 # Limit shared memory to do one broadcast per cycle (default on)
-gpgpu_shmem_warp_parts                    1 # Number of portions a warp is divided into for shared memory bank conflict check 
-gpgpu_mem_unit_ports                    1 # The number of memory transactions allowed per core cycle
-gpgpu_shmem_warp_parts                    1 # Number of portions a warp is divided into for shared memory bank conflict check 
-gpgpu_warpdistro_shader                   -1 # Specify which shader core to collect the warp size distribution from
-gpgpu_warp_issue_shader                    0 # Specify which shader core to collect the warp issue distribution from
-gpgpu_local_mem_map                    1 # Mapping from local memory space address to simulated GPU physical address space (default = enabled)
-gpgpu_num_reg_banks                   16 # Number of register banks (default = 8)
-gpgpu_reg_bank_use_warp_id                    0 # Use warp ID in mapping registers to banks (default = off)
-gpgpu_sub_core_model                    0 # Sub Core Volta/Pascal model (default = off)
-gpgpu_enable_specialized_operand_collector                    1 # enable_specialized_operand_collector
-gpgpu_operand_collector_num_units_sp                    6 # number of collector units (default = 4)
-gpgpu_operand_collector_num_units_dp                    0 # number of collector units (default = 0)
-gpgpu_operand_collector_num_units_sfu                    8 # number of collector units (default = 4)
-gpgpu_operand_collector_num_units_int                    0 # number of collector units (default = 0)
-gpgpu_operand_collector_num_units_tensor_core                    4 # number of collector units (default = 4)
-gpgpu_operand_collector_num_units_mem                    2 # number of collector units (default = 2)
-gpgpu_operand_collector_num_units_gen                    0 # number of collector units (default = 0)
-gpgpu_operand_collector_num_in_ports_sp                    2 # number of collector unit in ports (default = 1)
-gpgpu_operand_collector_num_in_ports_dp                    0 # number of collector unit in ports (default = 0)
-gpgpu_operand_collector_num_in_ports_sfu                    1 # number of collector unit in ports (default = 1)
-gpgpu_operand_collector_num_in_ports_int                    0 # number of collector unit in ports (default = 0)
-gpgpu_operand_collector_num_in_ports_tensor_core                    1 # number of collector unit in ports (default = 1)
-gpgpu_operand_collector_num_in_ports_mem                    1 # number of collector unit in ports (default = 1)
-gpgpu_operand_collector_num_in_ports_gen                    0 # number of collector unit in ports (default = 0)
-gpgpu_operand_collector_num_out_ports_sp                    2 # number of collector unit in ports (default = 1)
-gpgpu_operand_collector_num_out_ports_dp                    0 # number of collector unit in ports (default = 0)
-gpgpu_operand_collector_num_out_ports_sfu                    1 # number of collector unit in ports (default = 1)
-gpgpu_operand_collector_num_out_ports_int                    0 # number of collector unit in ports (default = 0)
-gpgpu_operand_collector_num_out_ports_tensor_core                    1 # number of collector unit in ports (default = 1)
-gpgpu_operand_collector_num_out_ports_mem                    1 # number of collector unit in ports (default = 1)
-gpgpu_operand_collector_num_out_ports_gen                    0 # number of collector unit in ports (default = 0)
-gpgpu_coalesce_arch                   20 # Coalescing arch (GT200 = 13, Fermi = 20)
-gpgpu_num_sched_per_core                    2 # Number of warp schedulers per core
-gpgpu_max_insn_issue_per_warp                    1 # Max number of instructions that can be issued per warp in one cycle by scheduler (either 1 or 2)
-gpgpu_dual_issue_diff_exec_units                    1 # should dual issue use two different execution unit resources (Default = 1)
-gpgpu_simt_core_sim_order                    1 # Select the simulation order of cores in a cluster (0=Fix, 1=Round-Robin)
-gpgpu_pipeline_widths 2,0,0,1,1,2,0,0,1,1,2 # Pipeline widths ID_OC_SP,ID_OC_DP,ID_OC_INT,ID_OC_SFU,ID_OC_MEM,OC_EX_SP,OC_EX_DP,OC_EX_INT,OC_EX_SFU,OC_EX_MEM,EX_WB,ID_OC_TENSOR_CORE,OC_EX_TENSOR_CORE
-gpgpu_tensor_core_avail                    0 # Tensor Core Available (default=0)
-gpgpu_num_sp_units                     2 # Number of SP units (default=1)
-gpgpu_num_dp_units                     0 # Number of DP units (default=0)
-gpgpu_num_int_units                    0 # Number of INT units (default=0)
-gpgpu_num_sfu_units                    1 # Number of SF units (default=1)
-gpgpu_num_tensor_core_units                    0 # Number of tensor_core units (default=1)
-gpgpu_num_mem_units                    1 # Number if ldst units (default=1) WARNING: not hooked up to anything
-gpgpu_scheduler                      gto # Scheduler configuration: < lrr | gto | two_level_active > If two_level_active:<num_active_warps>:<inner_prioritization>:<outer_prioritization>For complete list of prioritization values see shader.h enum scheduler_prioritization_typeDefault: gto
-gpgpu_concurrent_kernel_sm                    0 # Support concurrent kernels on a SM (default = disabled)
-gpgpu_perfect_inst_const_cache                    0 # perfect inst and const cache mode, so all inst and const hits in the cache(default = disabled)
-gpgpu_inst_fetch_throughput                    1 # the number of fetched intruction per warp each cycle
-gpgpu_reg_file_port_throughput                    1 # the number ports of the register file
-specialized_unit_1         0,4,4,4,4,BRA # specialized unit config {<enabled>,<num_units>:<latency>:<initiation>,<ID_OC_SPEC>:<OC_EX_SPEC>,<NAME>}
-specialized_unit_2         0,4,4,4,4,BRA # specialized unit config {<enabled>,<num_units>:<latency>:<initiation>,<ID_OC_SPEC>:<OC_EX_SPEC>,<NAME>}
-specialized_unit_3         0,4,4,4,4,BRA # specialized unit config {<enabled>,<num_units>:<latency>:<initiation>,<ID_OC_SPEC>:<OC_EX_SPEC>,<NAME>}
-specialized_unit_4         0,4,4,4,4,BRA # specialized unit config {<enabled>,<num_units>:<latency>:<initiation>,<ID_OC_SPEC>:<OC_EX_SPEC>,<NAME>}
-specialized_unit_5         0,4,4,4,4,BRA # specialized unit config {<enabled>,<num_units>:<latency>:<initiation>,<ID_OC_SPEC>:<OC_EX_SPEC>,<NAME>}
-specialized_unit_6         0,4,4,4,4,BRA # specialized unit config {<enabled>,<num_units>:<latency>:<initiation>,<ID_OC_SPEC>:<OC_EX_SPEC>,<NAME>}
-specialized_unit_7         0,4,4,4,4,BRA # specialized unit config {<enabled>,<num_units>:<latency>:<initiation>,<ID_OC_SPEC>:<OC_EX_SPEC>,<NAME>}
-specialized_unit_8         0,4,4,4,4,BRA # specialized unit config {<enabled>,<num_units>:<latency>:<initiation>,<ID_OC_SPEC>:<OC_EX_SPEC>,<NAME>}
-gpgpu_perf_sim_memcpy                    1 # Fill the L2 cache on memcpy
-gpgpu_simple_dram_model                    0 # simple_dram_model with fixed latency and BW
-gpgpu_dram_scheduler                    1 # 0 = fifo, 1 = FR-FCFS (defaul)
-gpgpu_dram_partition_queues          64:64:64:64 # i2$:$2d:d2$:$2i
-l2_ideal                               0 # Use a ideal L2 cache that always hit
-gpgpu_cache:dl2     S:64:128:8,L:B:m:L:L,A:256:4,4:0,32 # unified banked L2 data cache config  {<nsets>:<bsize>:<assoc>,<rep>:<wr>:<alloc>:<wr_alloc>,<mshr>:<N>:<merge>,<mq>}
-gpgpu_cache:dl2_texture_only                    0 # L2 cache used for texture only
-gpgpu_n_mem                            6 # number of memory modules (e.g. memory controllers) in gpu
-gpgpu_n_sub_partition_per_mchannel                    2 # number of memory subpartition in each memory module
-gpgpu_n_mem_per_ctrlr                    2 # number of memory chips per memory controller
-gpgpu_memlatency_stat                   14 # track and display latency statistics 0x2 enables MC, 0x4 enables queue logs
-gpgpu_frfcfs_dram_sched_queue_size                   64 # 0 = unlimited (default); # entries per chip
-gpgpu_dram_return_queue_size                  116 # 0 = unlimited (default); # entries per chip
-gpgpu_dram_buswidth                    4 # default = 4 bytes (8 bytes per cycle at DDR)
-gpgpu_dram_burst_length                    8 # Burst length of each DRAM request (default = 4 data bus cycle)
-dram_data_command_freq_ratio                    4 # Frequency ratio between DRAM data bus and command bus (default = 2 times, i.e. DDR)
-gpgpu_dram_timing_opt nbk=16:CCD=2:RRD=6:RCD=12:RAS=28:RP=12:RC=40: CL=12:WL=4:CDLR=5:WR=12:nbkgrp=4:CCDL=3:RTPL=2 # DRAM timing parameters = {nbk:tCCD:tRRD:tRCD:tRAS:tRP:tRC:CL:WL:tCDLR:tWR:nbkgrp:tCCDL:tRTPL}
-gpgpu_l2_rop_latency                  120 # ROP queue latency (default 85)
-dram_latency                         100 # DRAM latency (default 30)
-dram_dual_bus_interface                    0 # dual_bus_interface (default = 0) 
-dram_bnk_indexing_policy                    0 # dram_bnk_indexing_policy (0 = normal indexing, 1 = Xoring with the higher bits) (Default = 0)
-dram_bnkgrp_indexing_policy                    1 # dram_bnkgrp_indexing_policy (0 = take higher bits, 1 = take lower bits) (Default = 0)
-dram_seperate_write_queue_enable                    0 # Seperate_Write_Queue_Enable
-dram_write_queue_size             32:28:16 # Write_Queue_Size
-dram_elimnate_rw_turnaround                    0 # elimnate_rw_turnaround i.e set tWTR and tRTW = 0
-icnt_flit_size                        40 # icnt_flit_size
-SST_mode                               0 # SST mode
-gpgpu_mem_addr_mapping dramid@8;00000000.00000000.00000000.00000000.0000RRRR.RRRRRRRR.BBBCCCCB.CCSSSSSS # mapping memory address to dram model {dramid@<start bit>;<memory address map>}
-gpgpu_mem_addr_test                    0 # run sweep test to check address mapping for aliased address
-gpgpu_mem_address_mask                    1 # 0 = old addressing mask, 1 = new addressing mask, 2 = new add. mask + flipped bank sel and chip sel bits
-gpgpu_memory_partition_indexing                    0 # 0 = no indexing, 1 = bitwise xoring, 2 = IPoly, 3 = custom indexing
-accelwattch_xml_file gpuwattch_gtx480.xml # AccelWattch XML file
-power_simulation_enabled                    1 # Turn on power simulator (1=On, 0=Off)
-power_per_cycle_dump                    0 # Dump detailed power output each cycle
-hw_perf_file_name            hw_perf.csv # Hardware Performance Statistics file
-hw_perf_bench_name                       # Kernel Name in Hardware Performance Statistics file
-power_simulation_mode                    0 # Switch performance counter input for power simulation (0=Sim, 1=HW, 2=HW-Sim Hybrid)
-dvfs_enabled                           0 # Turn on DVFS for power model
-aggregate_power_stats                    0 # Accumulate power across all kernels
-accelwattch_hybrid_perfsim_L1_RH                    0 # Get L1 Read Hits for Accelwattch-Hybrid from Accel-Sim
-accelwattch_hybrid_perfsim_L1_RM                    0 # Get L1 Read Misses for Accelwattch-Hybrid from Accel-Sim
-accelwattch_hybrid_perfsim_L1_WH                    0 # Get L1 Write Hits for Accelwattch-Hybrid from Accel-Sim
-accelwattch_hybrid_perfsim_L1_WM                    0 # Get L1 Write Misses for Accelwattch-Hybrid from Accel-Sim
-accelwattch_hybrid_perfsim_L2_RH                    0 # Get L2 Read Hits for Accelwattch-Hybrid from Accel-Sim
-accelwattch_hybrid_perfsim_L2_RM                    0 # Get L2 Read Misses for Accelwattch-Hybrid from Accel-Sim
-accelwattch_hybrid_perfsim_L2_WH                    0 # Get L2 Write Hits for Accelwattch-Hybrid from Accel-Sim
-accelwattch_hybrid_perfsim_L2_WM                    0 # Get L2 Write Misses for Accelwattch-Hybrid from Accel-Sim
-accelwattch_hybrid_perfsim_CC_ACC                    0 # Get Constant Cache Acesses for Accelwattch-Hybrid from Accel-Sim
-accelwattch_hybrid_perfsim_SHARED_ACC                    0 # Get Shared Memory Acesses for Accelwattch-Hybrid from Accel-Sim
-accelwattch_hybrid_perfsim_DRAM_RD                    0 # Get DRAM Reads for Accelwattch-Hybrid from Accel-Sim
-accelwattch_hybrid_perfsim_DRAM_WR                    0 # Get DRAM Writes for Accelwattch-Hybrid from Accel-Sim
-accelwattch_hybrid_perfsim_NOC                    0 # Get Interconnect Acesses for Accelwattch-Hybrid from Accel-Sim
-accelwattch_hybrid_perfsim_PIPE_DUTY                    0 # Get Pipeline Duty Cycle Acesses for Accelwattch-Hybrid from Accel-Sim
-accelwattch_hybrid_perfsim_NUM_SM_IDLE                    0 # Get Number of Idle SMs for Accelwattch-Hybrid from Accel-Sim
-accelwattch_hybrid_perfsim_CYCLES                    0 # Get Executed Cycles for Accelwattch-Hybrid from Accel-Sim
-accelwattch_hybrid_perfsim_VOLTAGE                    0 # Get Chip Voltage for Accelwattch-Hybrid from Accel-Sim
-power_trace_enabled                    0 # produce a file for the power trace (1=On, 0=Off)
-power_trace_zlevel                     6 # Compression level of the power trace output log (0=no comp, 9=highest)
-steady_power_levels_enabled                    0 # produce a file for the steady power levels (1=On, 0=Off)
-steady_state_definition                  8:4 # allowed deviation:number of samples
-gpgpu_max_cycle                        0 # terminates gpu simulation early (0 = no limit)
-gpgpu_max_insn                         0 # terminates gpu simulation early (0 = no limit)
-gpgpu_max_cta                          0 # terminates gpu simulation early (0 = no limit)
-gpgpu_max_completed_cta                    0 # terminates gpu simulation early (0 = no limit)
-gpgpu_runtime_stat                   500 # display runtime statistics such as dram utilization {<freq>:<flag>}
-liveness_message_freq                    1 # Minimum number of seconds between simulation liveness messages (0 = always print)
-gpgpu_compute_capability_major                    2 # Major compute capability version number
-gpgpu_compute_capability_minor                    0 # Minor compute capability version number
-gpgpu_flush_l1_cache                    1 # Flush L1 cache at the end of each kernel call
-gpgpu_flush_l2_cache                    0 # Flush L2 cache at the end of each kernel call
-gpgpu_deadlock_detect                    1 # Stop the simulation at deadlock (1=on (default), 0=off)
-gpgpu_ptx_instruction_classification                    0 # if enabled will classify ptx instruction types per kernel (Max 255 kernels now)
-gpgpu_ptx_sim_mode                     0 # Select between Performance (default) or Functional simulation (1)
-gpgpu_clock_domains 1000.0:1000.0:1000.0:924.0 # Clock Domain Frequencies in MhZ {<Core Clock>:<ICNT Clock>:<L2 Clock>:<DRAM Clock>}
-gpgpu_max_concurrent_kernel                   32 # maximum kernels that can run concurrently on GPU, set this value according to max resident grids for your compute capability
-gpgpu_cflog_interval                    0 # Interval between each snapshot in control flow logger
-visualizer_enabled                     0 # Turn on visualizer output (1=On, 0=Off)
-visualizer_outputfile                 NULL # Specifies the output log file for visualizer
-visualizer_zlevel                      6 # Compression level of the visualizer output log (0=no comp, 9=highest)
-gpgpu_stack_size_limit                 1024 # GPU thread stack size
-gpgpu_heap_size_limit              8388608 # GPU malloc heap size 
-gpgpu_runtime_sync_depth_limit                    2 # GPU device runtime synchronize depth
-gpgpu_runtime_pending_launch_count_limit                 2048 # GPU device runtime pending launch count
-trace_enabled                          0 # Turn on traces
-trace_components                    none # comma seperated list of traces to enable. Complete list found in trace_streams.tup. Default none
-trace_sampling_core                    0 # The core which is printed using CORE_DPRINTF. Default 0
-trace_sampling_memory_partition                   -1 # The memory partition which is printed using MEMPART_DPRINTF. Default -1 (i.e. all)
-enable_ptx_file_line_stats                    1 # Turn on PTX source line statistic profiling. (1 = On)
-ptx_line_stats_filename gpgpu_inst_stats.txt # Output file for PTX source line statistics.
-gpgpu_kernel_launch_latency                    0 # Kernel launch latency in cycles. Default: 0
-gpgpu_cdp_enabled                      0 # Turn on CDP
-gpgpu_TB_launch_latency                    0 # thread block launch latency in cycles. Default: 0
DRAM Timing Options:
nbk                                    16 # number of banks
CCD                                     2 # column to column delay
RRD                                     6 # minimal delay between activation of rows in different banks
RCD                                    12 # row to column delay
RAS                                    28 # time needed to activate row
RP                                     12 # time needed to precharge (deactivate) row
RC                                     40 # row cycle time
CDLR                                    5 # switching from write to read (changes tWTR)
WR                                     12 # last data-in to row precharge
CL                                     12 # CAS latency
WL                                      4 # Write latency
nbkgrp                                  4 # number of bank groups
CCDL                                    3 # column to column delay between accesses to different bank groups
RTPL                                    2 # read to precharge delay between accesses to different bank groups
Total number of memory sub partition = 12
addr_dec_mask[CHIP]  = 0000000000000000 	high:64 low:0
addr_dec_mask[BK]    = 000000000000e100 	high:16 low:8
addr_dec_mask[ROW]   = 000000000fff0000 	high:28 low:16
addr_dec_mask[COL]   = 0000000000001eff 	high:13 low:0
addr_dec_mask[BURST] = 000000000000003f 	high:6 low:0
sub_partition_id_mask = 0000000000000100
GPGPU-Sim uArch: clock freqs: 1000000000.000000:1000000000.000000:1000000000.000000:924000000.000000
GPGPU-Sim uArch: clock periods: 0.00000000100000000000:0.00000000100000000000:0.00000000100000000000:0.00000000108225108225
*** Initializing Memory Statistics ***
GPGPU-Sim uArch: interconnect node map (shaderID+MemID to icntID)
GPGPU-Sim uArch: Memory nodes ID start from index: 15
GPGPU-Sim uArch:    0   1   2   3   4
GPGPU-Sim uArch:    5   6   7   8   9
GPGPU-Sim uArch:   10  11  12  13  14
GPGPU-Sim uArch:   15  16  17  18  19
GPGPU-Sim uArch:   20  21  22  23  24
GPGPU-Sim uArch:   25  26
GPGPU-Sim uArch: interconnect node reverse map (icntID to shaderID+MemID)
GPGPU-Sim uArch: Memory nodes start from ID: 15
GPGPU-Sim uArch:    0   1   2   3   4
GPGPU-Sim uArch:    5   6   7   8   9
GPGPU-Sim uArch:   10  11  12  13  14
GPGPU-Sim uArch:   15  16  17  18  19
GPGPU-Sim uArch:   20  21  22  23  24
GPGPU-Sim uArch:   25  26
ebe5d78a7e7735a4d24d00f8ee6b8b64  /home/ubuntu/LAB2/apps/LUD_OC/lud.gpu
Extracting PTX file and ptxas options    1: lud.1.sm_30.ptx -arch=sm_30
Extracting PTX file and ptxas options    2: lud.2.sm_30.ptx -arch=sm_30
GPGPU-Sim uArch: performance model initialization complete.
GPGPU-Sim PTX: __cudaRegisterFatBinary, fat_cubin_handle = 1, filename=default
self exe links to: /home/ubuntu/LAB2/apps/LUD_OC/lud.gpu
Running md5sum using "md5sum /home/ubuntu/LAB2/apps/LUD_OC/lud.gpu "
self exe links to: /home/ubuntu/LAB2/apps/LUD_OC/lud.gpu
Extracting specific PTX file named lud.1.sm_30.ptx 
Extracting specific PTX file named lud.2.sm_30.ptx 
self exe links to: /home/ubuntu/LAB2/apps/LUD_OC/lud.gpu
self exe links to: /home/ubuntu/LAB2/apps/LUD_OC/lud.gpu
10.0
GPGPU-Sim PTX: __cudaRegisterFatBinary, fat_cubin_handle = 2, filename=default
GPGPU-Sim PTX: __cudaRegisterFunction _Z12lud_internalPfii : hostFun 0x0x5e26c9360aec, fat_cubin_handle = 2
GPGPU-Sim PTX: Parsing lud.1.sm_30.ptx
GPGPU-Sim PTX: finished parsing EMBEDDED .ptx file lud.1.sm_30.ptx
GPGPU-Sim PTX: Parsing lud.2.sm_30.ptx
GPGPU-Sim PTX: allocating shared region for "_ZZ12lud_diagonalPfiiE6shadow" from 0x0 to 0x400 (shared memory space)
GPGPU-Sim PTX: instruction assembly for function '_Z12lud_diagonalPfii'...   done.
GPGPU-Sim PTX: allocating shared region for "_ZZ13lud_perimeterPfiiE3dia" from 0x0 to 0x400 (shared memory space)
GPGPU-Sim PTX: allocating shared region for "_ZZ13lud_perimeterPfiiE8peri_row" from 0x400 to 0x800 (shared memory space)
GPGPU-Sim PTX: allocating shared region for "_ZZ13lud_perimeterPfiiE8peri_col" from 0x800 to 0xc00 (shared memory space)
GPGPU-Sim PTX: instruction assembly for function '_Z13lud_perimeterPfii'...   done.
GPGPU-Sim PTX: allocating shared region for "_ZZ12lud_internalPfiiE8peri_row" from 0x0 to 0x400 (shared memory space)
GPGPU-Sim PTX: allocating shared region for "_ZZ12lud_internalPfiiE8peri_col" from 0x400 to 0x800 (shared memory space)
GPGPU-Sim PTX: instruction assembly for function '_Z12lud_internalPfii'...   done.
GPGPU-Sim PTX: finished parsing EMBEDDED .ptx file lud.2.sm_30.ptx
GPGPU-Sim PTX: loading globals with explicit initializers... 
GPGPU-Sim PTX: finished loading globals (0 bytes total).
GPGPU-Sim PTX: loading constants with explicit initializers...  done.
GPGPU-Sim PTX: Loading PTXInfo from lud.1.sm_30.ptx
GPGPU-Sim PTX: Loading PTXInfo from lud.2.sm_30.ptx
GPGPU-Sim PTX: Kernel '_Z12lud_internalPfii' : regs=22, lmem=0, smem=2048, cmem=336
GPGPU-Sim PTX: Kernel '_Z13lud_perimeterPfii' : regs=63, lmem=0, smem=3072, cmem=352
GPGPU-Sim PTX: Kernel '_Z12lud_diagonalPfii' : regs=48, lmem=0, smem=1024, cmem=352
GPGPU-Sim PTX: __cudaRegisterFunction _Z13lud_perimeterPfii : hostFun 0x0x5e26c9360962, fat_cubin_handle = 2
GPGPU-Sim PTX: __cudaRegisterFunction _Z12lud_diagonalPfii : hostFun 0x0x5e26c93607d8, fat_cubin_handle = 2
WG size of kernel = 16 X 16
Generate input matrix internally, size =512
Creating matrix internally size=512
Before LUD
GPGPU-Sim PTX: Setting up arguments for 8 bytes starting at 0x7ffdadcb06e8..
GPGPU-Sim PTX: Setting up arguments for 4 bytes starting at 0x7ffdadcb06e4..
GPGPU-Sim PTX: Setting up arguments for 4 bytes starting at 0x7ffdadcb06e0..

GPGPU-Sim PTX: cudaLaunch for 0x0x5e26c93607d8 (mode=performance simulation) on stream 0
GPGPU-Sim PTX: finding reconvergence points for '_Z12lud_diagonalPfii'...
GPGPU-Sim PTX: Finding dominators for '_Z12lud_diagonalPfii'...
GPGPU-Sim PTX: Finding immediate dominators for '_Z12lud_diagonalPfii'...
GPGPU-Sim PTX: Finding postdominators for '_Z12lud_diagonalPfii'...
GPGPU-Sim PTX: Finding immediate postdominators for '_Z12lud_diagonalPfii'...
GPGPU-Sim PTX: pre-decoding instructions for '_Z12lud_diagonalPfii'...
GPGPU-Sim PTX: reconvergence points for _Z12lud_diagonalPfii...
GPGPU-Sim PTX:  1 (potential) branch divergence @  PC=0x2e0 (lud.2.sm_30.ptx:128) @%p2 bra BB0_6;
GPGPU-Sim PTX:    immediate post dominator      @  PC=0x3b0 (lud.2.sm_30.ptx:162) setp.gt.u32%p1, %r1, %r89;
GPGPU-Sim PTX:  2 (potential) branch divergence @  PC=0x318 (lud.2.sm_30.ptx:136) @%p3 bra BB0_5;
GPGPU-Sim PTX:    immediate post dominator      @  PC=0x380 (lud.2.sm_30.ptx:154) shl.b32 %r55, %r89, 6;
GPGPU-Sim PTX:  3 (potential) branch divergence @  PC=0x378 (lud.2.sm_30.ptx:151) @%p4 bra BB0_4;
GPGPU-Sim PTX:    immediate post dominator      @  PC=0x380 (lud.2.sm_30.ptx:154) shl.b32 %r55, %r89, 6;
GPGPU-Sim PTX:  4 (potential) branch divergence @  PC=0x3d8 (lud.2.sm_30.ptx:167) @!%p6 bra BB0_9;
GPGPU-Sim PTX:    immediate post dominator      @  PC=0x488 (lud.2.sm_30.ptx:195) bar.sync 0;
GPGPU-Sim PTX:  5 (potential) branch divergence @  PC=0x3e0 (lud.2.sm_30.ptx:168) bra.uni BB0_7;
GPGPU-Sim PTX:    immediate post dominator      @  PC=0x3e8 (lud.2.sm_30.ptx:171) shl.b32 %r88, %r1, 2;
GPGPU-Sim PTX:  6 (potential) branch divergence @  PC=0x480 (lud.2.sm_30.ptx:192) @%p7 bra BB0_8;
GPGPU-Sim PTX:    immediate post dominator      @  PC=0x488 (lud.2.sm_30.ptx:195) bar.sync 0;
GPGPU-Sim PTX:  7 (potential) branch divergence @  PC=0x4a0 (lud.2.sm_30.ptx:198) @%p8 bra BB0_1;
GPGPU-Sim PTX:    immediate post dominator      @  PC=0x4a8 (lud.2.sm_30.ptx:200) ld.param.u64 %rd55, [_Z12lud_diagonalPfii_param_0];
GPGPU-Sim PTX: ... end of reconvergence points for _Z12lud_diagonalPfii
GPGPU-Sim PTX: ... done pre-decoding instructions for '_Z12lud_diagonalPfii'.
GPGPU-Sim PTX: pushing kernel '_Z12lud_diagonalPfii' to stream 0, gridDim= (1,1,1) blockDim = (16,1,1) 
GPGPU-Sim uArch: Shader 0 bind to kernel 1 '_Z12lud_diagonalPfii'
GPGPU-Sim uArch: CTA/core = 8, limited by: cta_limit
Destroy streams for kernel 1: size 0
kernel_name = _Z12lud_diagonalPfii 
kernel_launch_uid = 1 
kernel_stream_id = 0
gpu_sim_cycle = 30536
gpu_sim_insn = 19880
gpu_ipc =       0.6510
gpu_tot_sim_cycle = 30536
gpu_tot_sim_insn = 19880
gpu_tot_ipc =       0.6510
gpu_tot_issued_cta = 1
gpu_occupancy = 2.0833% 
gpu_tot_occupancy = 2.0833% 
max_total_param_size = 0
gpu_stall_dramfull = 0
gpu_stall_icnt2sh    = 0
partiton_level_parallism =       0.0014
partiton_level_parallism_total  =       0.0014
partiton_level_parallism_util =       1.0000
partiton_level_parallism_util_total  =       1.0000
L2_BW  =       0.1509 GB/Sec
L2_BW_total  =       0.1509 GB/Sec
gpu_total_sim_rate=3976

========= Core cache stats =========
L1I_cache:
	L1I_total_cache_accesses = 1672
	L1I_total_cache_misses = 12
	L1I_total_cache_miss_rate = 0.0072
	L1I_total_cache_pending_hits = 0
	L1I_total_cache_reservation_fails = 0
L1D_cache:
	L1D_cache_core[0]: Access = 31, Miss = 16, Miss_rate = 0.516, Pending_hits = 0, Reservation_fails = 0
	L1D_cache_core[1]: Access = 0, Miss = 0, Miss_rate = -nan, Pending_hits = 0, Reservation_fails = 0
	L1D_cache_core[2]: Access = 0, Miss = 0, Miss_rate = -nan, Pending_hits = 0, Reservation_fails = 0
	L1D_cache_core[3]: Access = 0, Miss = 0, Miss_rate = -nan, Pending_hits = 0, Reservation_fails = 0
	L1D_cache_core[4]: Access = 0, Miss = 0, Miss_rate = -nan, Pending_hits = 0, Reservation_fails = 0
	L1D_cache_core[5]: Access = 0, Miss = 0, Miss_rate = -nan, Pending_hits = 0, Reservation_fails = 0
	L1D_cache_core[6]: Access = 0, Miss = 0, Miss_rate = -nan, Pending_hits = 0, Reservation_fails = 0
	L1D_cache_core[7]: Access = 0, Miss = 0, Miss_rate = -nan, Pending_hits = 0, Reservation_fails = 0
	L1D_cache_core[8]: Access = 0, Miss = 0, Miss_rate = -nan, Pending_hits = 0, Reservation_fails = 0
	L1D_cache_core[9]: Access = 0, Miss = 0, Miss_rate = -nan, Pending_hits = 0, Reservation_fails = 0
	L1D_cache_core[10]: Access = 0, Miss = 0, Miss_rate = -nan, Pending_hits = 0, Reservation_fails = 0
	L1D_cache_core[11]: Access = 0, Miss = 0, Miss_rate = -nan, Pending_hits = 0, Reservation_fails = 0
	L1D_cache_core[12]: Access = 0, Miss = 0, Miss_rate = -nan, Pending_hits = 0, Reservation_fails = 0
	L1D_cache_core[13]: Access = 0, Miss = 0, Miss_rate = -nan, Pending_hits = 0, Reservation_fails = 0
	L1D_cache_core[14]: Access = 0, Miss = 0, Miss_rate = -nan, Pending_hits = 0, Reservation_fails = 0
	L1D_total_cache_accesses = 31
	L1D_total_cache_misses = 16
	L1D_total_cache_miss_rate = 0.5161
	L1D_total_cache_pending_hits = 0
	L1D_total_cache_reservation_fails = 0
	L1D_cache_data_port_util = 0.000
	L1D_cache_fill_port_util = 0.001
L1C_cache:
	L1C_total_cache_accesses = 6
	L1C_total_cache_misses = 3
	L1C_total_cache_miss_rate = 0.5000
	L1C_total_cache_pending_hits = 0
	L1C_total_cache_reservation_fails = 0
L1T_cache:
	L1T_total_cache_accesses = 0
	L1T_total_cache_misses = 0
	L1T_total_cache_pending_hits = 0
	L1T_total_cache_reservation_fails = 0

Total_core_cache_stats:
	Total_core_cache_stats_breakdown[GLOBAL_ACC_R][HIT] = 0
	Total_core_cache_stats_breakdown[GLOBAL_ACC_R][HIT_RESERVED] = 0
	Total_core_cache_stats_breakdown[GLOBAL_ACC_R][MISS] = 16
	Total_core_cache_stats_breakdown[GLOBAL_ACC_R][RESERVATION_FAIL] = 0
	Total_core_cache_stats_breakdown[GLOBAL_ACC_R][SECTOR_MISS] = 0
	Total_core_cache_stats_breakdown[GLOBAL_ACC_R][MSHR_HIT] = 0
	Total_core_cache_stats_breakdown[LOCAL_ACC_R][HIT] = 0
	Total_core_cache_stats_breakdown[LOCAL_ACC_R][HIT_RESERVED] = 0
	Total_core_cache_stats_breakdown[LOCAL_ACC_R][MISS] = 0
	Total_core_cache_stats_breakdown[LOCAL_ACC_R][RESERVATION_FAIL] = 0
	Total_core_cache_stats_breakdown[LOCAL_ACC_R][SECTOR_MISS] = 0
	Total_core_cache_stats_breakdown[LOCAL_ACC_R][MSHR_HIT] = 0
	Total_core_cache_stats_breakdown[CONST_ACC_R][HIT] = 3
	Total_core_cache_stats_breakdown[CONST_ACC_R][HIT_RESERVED] = 0
	Total_core_cache_stats_breakdown[CONST_ACC_R][MISS] = 3
	Total_core_cache_stats_breakdown[CONST_ACC_R][RESERVATION_FAIL] = 0
	Total_core_cache_stats_breakdown[CONST_ACC_R][SECTOR_MISS] = 0
	Total_core_cache_stats_breakdown[CONST_ACC_R][MSHR_HIT] = 2
	Total_core_cache_stats_breakdown[TEXTURE_ACC_R][HIT] = 0
	Total_core_cache_stats_breakdown[TEXTURE_ACC_R][HIT_RESERVED] = 0
	Total_core_cache_stats_breakdown[TEXTURE_ACC_R][MISS] = 0
	Total_core_cache_stats_breakdown[TEXTURE_ACC_R][RESERVATION_FAIL] = 0
	Total_core_cache_stats_breakdown[TEXTURE_ACC_R][SECTOR_MISS] = 0
	Total_core_cache_stats_breakdown[TEXTURE_ACC_R][MSHR_HIT] = 0
	Total_core_cache_stats_breakdown[GLOBAL_ACC_W][HIT] = 15
	Total_core_cache_stats_breakdown[GLOBAL_ACC_W][HIT_RESERVED] = 0
	Total_core_cache_stats_breakdown[GLOBAL_ACC_W][MISS] = 0
	Total_core_cache_stats_breakdown[GLOBAL_ACC_W][RESERVATION_FAIL] = 0
	Total_core_cache_stats_breakdown[GLOBAL_ACC_W][SECTOR_MISS] = 0
	Total_core_cache_stats_breakdown[GLOBAL_ACC_W][MSHR_HIT] = 0
	Total_core_cache_stats_breakdown[LOCAL_ACC_W][HIT] = 0
	Total_core_cache_stats_breakdown[LOCAL_ACC_W][HIT_RESERVED] = 0
	Total_core_cache_stats_breakdown[LOCAL_ACC_W][MISS] = 0
	Total_core_cache_stats_breakdown[LOCAL_ACC_W][RESERVATION_FAIL] = 0
	Total_core_cache_stats_breakdown[LOCAL_ACC_W][SECTOR_MISS] = 0
	Total_core_cache_stats_breakdown[LOCAL_ACC_W][MSHR_HIT] = 0
	Total_core_cache_stats_breakdown[L1_WRBK_ACC][HIT] = 0
	Total_core_cache_stats_breakdown[L1_WRBK_ACC][HIT_RESERVED] = 0
	Total_core_cache_stats_breakdown[L1_WRBK_ACC][MISS] = 0
	Total_core_cache_stats_breakdown[L1_WRBK_ACC][RESERVATION_FAIL] = 0
	Total_core_cache_stats_breakdown[L1_WRBK_ACC][SECTOR_MISS] = 0
	Total_core_cache_stats_breakdown[L1_WRBK_ACC][MSHR_HIT] = 0
	Total_core_cache_stats_breakdown[L2_WRBK_ACC][HIT] = 0
	Total_core_cache_stats_breakdown[L2_WRBK_ACC][HIT_RESERVED] = 0
	Total_core_cache_stats_breakdown[L2_WRBK_ACC][MISS] = 0
	Total_core_cache_stats_breakdown[L2_WRBK_ACC][RESERVATION_FAIL] = 0
	Total_core_cache_stats_breakdown[L2_WRBK_ACC][SECTOR_MISS] = 0
	Total_core_cache_stats_breakdown[L2_WRBK_ACC][MSHR_HIT] = 0
	Total_core_cache_stats_breakdown[INST_ACC_R][HIT] = 1660
	Total_core_cache_stats_breakdown[INST_ACC_R][HIT_RESERVED] = 0
	Total_core_cache_stats_breakdown[INST_ACC_R][MISS] = 12
	Total_core_cache_stats_breakdown[INST_ACC_R][RESERVATION_FAIL] = 0
	Total_core_cache_stats_breakdown[INST_ACC_R][SECTOR_MISS] = 0
	Total_core_cache_stats_breakdown[INST_ACC_R][MSHR_HIT] = 0
	Total_core_cache_stats_breakdown[L1_WR_ALLOC_R][HIT] = 0
	Total_core_cache_stats_breakdown[L1_WR_ALLOC_R][HIT_RESERVED] = 0
	Total_core_cache_stats_breakdown[L1_WR_ALLOC_R][MISS] = 0
	Total_core_cache_stats_breakdown[L1_WR_ALLOC_R][RESERVATION_FAIL] = 0
	Total_core_cache_stats_breakdown[L1_WR_ALLOC_R][SECTOR_MISS] = 0
	Total_core_cache_stats_breakdown[L1_WR_ALLOC_R][MSHR_HIT] = 0
	Total_core_cache_stats_breakdown[L2_WR_ALLOC_R][HIT] = 0
	Total_core_cache_stats_breakdown[L2_WR_ALLOC_R][HIT_RESERVED] = 0
	Total_core_cache_stats_breakdown[L2_WR_ALLOC_R][MISS] = 0
	Total_core_cache_stats_breakdown[L2_WR_ALLOC_R][RESERVATION_FAIL] = 0
	Total_core_cache_stats_breakdown[L2_WR_ALLOC_R][SECTOR_MISS] = 0
	Total_core_cache_stats_breakdown[L2_WR_ALLOC_R][MSHR_HIT] = 0
	Total_core_cache_stats_breakdown[GLOBAL_ACC_R][TOTAL_ACCESS] = 16
	Total_core_cache_stats_breakdown[CONST_ACC_R][TOTAL_ACCESS] = 6
	Total_core_cache_stats_breakdown[GLOBAL_ACC_W][TOTAL_ACCESS] = 15
	Total_core_cache_stats_breakdown[INST_ACC_R][TOTAL_ACCESS] = 1672

Total_core_cache_fail_stats:
ctas_completed 1, Shader 0 warp_id issue ditsribution:
warp_id:
0, 
distro:
2949, 
gpgpu_n_tot_thrd_icount = 94368
gpgpu_n_tot_w_icount = 2949
gpgpu_n_stall_shd_mem = 504
gpgpu_n_mem_read_local = 0
gpgpu_n_mem_write_local = 0
gpgpu_n_mem_read_global = 16
gpgpu_n_mem_write_global = 15
gpgpu_n_mem_texture = 0
gpgpu_n_mem_const = 1
gpgpu_n_load_insn  = 256
gpgpu_n_store_insn = 240
gpgpu_n_shmem_insn = 4696
gpgpu_n_sstarr_insn = 0
gpgpu_n_tex_insn = 0
gpgpu_n_const_mem_insn = 0
gpgpu_n_param_mem_insn = 96
gpgpu_n_shmem_bkconflict = 504
gpgpu_n_l1cache_bkconflict = 0
gpgpu_n_intrawarp_mshr_merge = 0
gpgpu_n_cmem_portconflict = 0
gpgpu_stall_shd_mem[c_mem][resource_stall] = 0
gpgpu_stall_shd_mem[s_mem][bk_conf] = 504
gpgpu_stall_shd_mem[gl_mem][resource_stall] = 0
gpgpu_stall_shd_mem[gl_mem][coal_stall] = 0
gpgpu_stall_shd_mem[gl_mem][data_port_stall] = 0
gpu_reg_bank_conflict_stalls = 0
Warp Occupancy Distribution:
Stall:0	W0_Idle:35884	W0_Scoreboard:22237	W1:316	W2:296	W3:276	W4:256	W5:236	W6:216	W7:196	W8:176	W9:156	W10:136	W11:116	W12:96	W13:76	W14:56	W15:34	W16:311	W17:0	W18:0	W19:0	W20:0	W21:0	W22:0	W23:0	W24:0	W25:0	W26:0	W27:0	W28:0	W29:0	W30:0	W31:0	W32:0
single_issue_nums: WS0:2949	WS1:0	
dual_issue_nums: WS0:0	WS1:0	
traffic_breakdown_coretomem[CONST_ACC_R] = 8 {8:1,}
traffic_breakdown_coretomem[GLOBAL_ACC_R] = 128 {8:16,}
traffic_breakdown_coretomem[GLOBAL_ACC_W] = 1080 {72:15,}
traffic_breakdown_coretomem[INST_ACC_R] = 96 {8:12,}
traffic_breakdown_memtocore[CONST_ACC_R] = 80 {40:2,}
traffic_breakdown_memtocore[GLOBAL_ACC_R] = 2560 {40:64,}
traffic_breakdown_memtocore[GLOBAL_ACC_W] = 240 {8:30,}
traffic_breakdown_memtocore[INST_ACC_R] = 1920 {40:48,}
maxmflatency = 283 
max_icnt2mem_latency = 50 
maxmrqlatency = 31 
max_icnt2sh_latency = 7 
averagemflatency = 242 
avg_icnt2mem_latency = 20 
avg_mrq_latency = 7 
avg_icnt2sh_latency = 9 
mrq_lat_table:44 	16 	23 	8 	22 	0 	0 	0 	0 	0 	0 	0 	0 	0 	0 	0 	0 	0 	0 	0 	0 	0 	0 	0 	0 	0 	0 	0 	0 	0 	0 	0 	
dq_lat_table:0 	0 	0 	0 	0 	0 	0 	0 	0 	0 	0 	0 	0 	0 	0 	0 	0 	0 	0 	0 	0 	0 	0 	0 	0 	0 	0 	0 	0 	0 	0 	0 	
mf_lat_table:0 	0 	0 	0 	0 	0 	0 	69 	27 	0 	0 	0 	0 	0 	0 	0 	0 	0 	0 	0 	0 	0 	0 	0 	0 	0 	0 	0 	0 	0 	0 	0 	
icnt2mem_lat_table:0 	0 	12 	1 	0 	31 	0 	0 	0 	0 	0 	0 	0 	0 	0 	0 	0 	0 	0 	0 	0 	0 	0 	0 	
icnt2sh_lat_table:0 	0 	96 	0 	0 	0 	0 	0 	0 	0 	0 	0 	0 	0 	0 	0 	0 	0 	0 	0 	0 	0 	0 	0 	
mf_lat_pw_table:0 	0 	0 	0 	0 	0 	0 	10 	3 	0 	0 	0 	0 	0 	0 	0 	0 	0 	0 	0 	0 	0 	0 	0 	0 	0 	0 	0 	0 	0 	0 	0 	
maximum concurrent accesses to same row:
dram[0]:         5         0         0         0         0         0         0         0         0         0         0         0         0         0         0         0 
dram[1]:         0         0         0         0         0         0         0         0         0         0         0         0         0         0         0         0 
dram[2]:         0         0         0         0         0         0         0         0         0         0         0         0         0         0         0         0 
dram[3]:         0         0         0         0         0         0         0         0         0         0         0         0         0         0         0         0 
dram[4]:        20         0         0         0         0         0         0         0         0         0         0         0         0         0         0         0 
dram[5]:         0         0         0         0         0         0         0         0         0         0         0         0         0         0         0         0 
maximum service time to same row:
dram[0]:      1044         0         0         0         0         0         0         0         0         0         0         0         0         0         0         0 
dram[1]:      2518         0         0         0         0         0         0         0         0         0         0         0         0         0         0         0 
dram[2]:      5135         0         0         0         0         0         0         0         0         0         0         0         0         0         0         0 
dram[3]:      7385         0         0         0         0         0         0         0         0         0         0         0         0         0         0         0 
dram[4]:      8086         0         0         0         0         0         0         0         0         0         0         0         0         0         0         0 
dram[5]:     29990         0         0         0         0         0         0         0         0         0         0         0         0         0         0         0 
average row accesses per activate:
dram[0]:  8.250000      -nan      -nan      -nan      -nan      -nan      -nan      -nan      -nan      -nan      -nan      -nan      -nan      -nan      -nan      -nan 
dram[1]:  8.000000      -nan      -nan      -nan      -nan      -nan      -nan      -nan      -nan      -nan      -nan      -nan      -nan      -nan      -nan      -nan 
dram[2]:  8.000000       inf      -nan      -nan      -nan      -nan      -nan      -nan      -nan      -nan      -nan      -nan      -nan      -nan      -nan      -nan 
dram[3]:  8.000000      -nan      -nan      -nan      -nan      -nan      -nan      -nan      -nan      -nan      -nan      -nan      -nan      -nan      -nan      -nan 
dram[4]: 28.000000      -nan      -nan      -nan      -nan      -nan      -nan      -nan      -nan      -nan      -nan      -nan      -nan      -nan      -nan      -nan 
dram[5]:  8.000000      -nan      -nan      -nan      -nan      -nan      -nan      -nan      -nan      -nan      -nan      -nan      -nan      -nan      -nan      -nan 
average row locality = 113/9 = 12.555555
number of total memory accesses made:
dram[0]:         0         0         0         0         0         0         0         0         0         0         0         0         0         0         0         0 
dram[1]:         0         0         0         0         0         0         0         0         0         0         0         0         0         0         0         0 
dram[2]:         0         0         0         0         0         0         0         0         0         0         0         0         0         0         0         0 
dram[3]:         0         0         0         0         0         0         0         0         0         0         0         0         0         0         0         0 
dram[4]:         0         0         0         0         0         0         0         0         0         0         0         0         0         0         0         0 
dram[5]:         0         0         0         0         0         0         0         0         0         0         0         0         0         0         0         0 
total accesses: 0
min_bank_accesses = 0!
min_chip_accesses = 0!
number of total read accesses:
dram[0]:         0         0         0         0         0         0         0         0         0         0         0         0         0         0         0         0 
dram[1]:         0         0         0         0         0         0         0         0         0         0         0         0         0         0         0         0 
dram[2]:         0         0         0         0         0         0         0         0         0         0         0         0         0         0         0         0 
dram[3]:         0         0         0         0         0         0         0         0         0         0         0         0         0         0         0         0 
dram[4]:         0         0         0         0         0         0         0         0         0         0         0         0         0         0         0         0 
dram[5]:         0         0         0         0         0         0         0         0         0         0         0         0         0         0         0         0 
total dram reads = 0
min_bank_accesses = 0!
min_chip_accesses = 0!
number of total write accesses:
dram[0]:         0         0         0         0         0         0         0         0         0         0         0         0         0         0         0         0 
dram[1]:         0         0         0         0         0         0         0         0         0         0         0         0         0         0         0         0 
dram[2]:         0         0         0         0         0         0         0         0         0         0         0         0         0         0         0         0 
dram[3]:         0         0         0         0         0         0         0         0         0         0         0         0         0         0         0         0 
dram[4]:         0         0         0         0         0         0         0         0         0         0         0         0         0         0         0         0 
dram[5]:         0         0         0         0         0         0         0         0         0         0         0         0         0         0         0         0 
total dram writes = 0
min_bank_accesses = 0!
min_chip_accesses = 0!
average mf latency per bank:
dram[0]:     none      none      none      none      none      none      none      none      none      none      none      none      none      none      none      none  
dram[1]:     none      none      none      none      none      none      none      none      none      none      none      none      none      none      none      none  
dram[2]:     none      none      none      none      none      none      none      none      none      none      none      none      none      none      none      none  
dram[3]:     none      none      none      none      none      none      none      none      none      none      none      none      none      none      none      none  
dram[4]:     none      none      none      none      none      none      none      none      none      none      none      none      none      none      none      none  
dram[5]:     none      none      none      none      none      none      none      none      none      none      none      none      none      none      none      none  
maximum mf latency per bank:
dram[0]:        283         0         0         0         0         0         0         0         0         0         0         0         0         0         0         0
dram[1]:          0         0         0         0         0         0         0         0         0         0         0         0         0         0         0         0
dram[2]:          0       269         0         0         0         0         0         0         0         0         0         0         0         0         0         0
dram[3]:          0         0         0         0         0         0         0         0         0         0         0         0         0         0         0         0
dram[4]:        270         0         0         0         0         0         0         0         0         0         0         0         0         0         0         0
dram[5]:          0         0         0         0         0         0         0         0         0         0         0         0         0         0         0         0
Memory Partition 0: 
Cache L2_bank_000:
MSHR contents

Cache L2_bank_001:
MSHR contents

In Dram Latency Queue (total = 0): 
DRAM[0]: 16 bks, busW=4 BL=8 CL=12, tRRD=6 tCCD=2, tRCD=12 tRAS=28 tRP=12 tRC=40
n_cmd=28215 n_nop=28175 n_act=4 n_pre=3 n_ref_event=0 n_req=33 n_rd=33 n_rd_L2_A=0 n_write=0 n_wr_bk=0 bw_util=0.002339
n_activity=301 dram_eff=0.2193
bk0: 33a 28083i bk1: 0a 28212i bk2: 0a 28212i bk3: 0a 28212i bk4: 0a 28212i bk5: 0a 28214i bk6: 0a 28215i bk7: 0a 28215i bk8: 0a 28215i bk9: 0a 28215i bk10: 0a 28215i bk11: 0a 28215i bk12: 0a 28216i bk13: 0a 28218i bk14: 0a 28218i bk15: 0a 28218i 

------------------------------------------------------------------------

Row_Buffer_Locality = 0.878788
Row_Buffer_Locality_read = 0.878788
Row_Buffer_Locality_write = -nan
Bank_Level_Parallism = 1.000000
Bank_Level_Parallism_Col = 1.000000
Bank_Level_Parallism_Ready = 1.000000
write_to_read_ratio_blp_rw_average = 0.000000
GrpLevelPara = 1.000000 

BW Util details:
bwutil = 0.002339 
total_CMD = 28215 
util_bw = 66 
Wasted_Col = 72 
Wasted_Row = 36 
Idle = 28041 

BW Util Bottlenecks: 
RCDc_limit = 48 
RCDWRc_limit = 0 
WTRc_limit = 0 
RTWc_limit = 0 
CCDLc_limit = 24 
rwq = 0 
CCDLc_limit_alone = 24 
WTRc_limit_alone = 0 
RTWc_limit_alone = 0 

Commands details: 
total_CMD = 28215 
n_nop = 28175 
Read = 33 
Write = 0 
L2_Alloc = 0 
L2_WB = 0 
n_act = 4 
n_pre = 3 
n_ref = 0 
n_req = 33 
total_req = 33 

Dual Bus Interface Util: 
issued_total_row = 7 
issued_total_col = 33 
Row_Bus_Util =  0.000248 
CoL_Bus_Util = 0.001170 
Either_Row_CoL_Bus_Util = 0.001418 
Issued_on_Two_Bus_Simul_Util = 0.000000 
issued_two_Eff = 0.000000 
queue_avg = 0.007833 


dram_util_bins: 0 0 0 0 0 0 0 0 0 0
dram_eff_bins: 0 0 0 0 0 0 0 0 0 0
mrqq: max=3 avg=0.00783271
Memory Partition 1: 
Cache L2_bank_002:
MSHR contents

Cache L2_bank_003:
MSHR contents

In Dram Latency Queue (total = 0): 
DRAM[1]: 16 bks, busW=4 BL=8 CL=12, tRRD=6 tCCD=2, tRCD=12 tRAS=28 tRP=12 tRC=40
n_cmd=28215 n_nop=28206 n_act=1 n_pre=0 n_ref_event=0 n_req=8 n_rd=8 n_rd_L2_A=0 n_write=0 n_wr_bk=0 bw_util=0.0005671
n_activity=61 dram_eff=0.2623
bk0: 8a 28191i bk1: 0a 28215i bk2: 0a 28215i bk3: 0a 28215i bk4: 0a 28215i bk5: 0a 28215i bk6: 0a 28215i bk7: 0a 28215i bk8: 0a 28215i bk9: 0a 28215i bk10: 0a 28215i bk11: 0a 28215i bk12: 0a 28215i bk13: 0a 28215i bk14: 0a 28215i bk15: 0a 28215i 

------------------------------------------------------------------------

Row_Buffer_Locality = 0.875000
Row_Buffer_Locality_read = 0.875000
Row_Buffer_Locality_write = -nan
Bank_Level_Parallism = 1.000000
Bank_Level_Parallism_Col = 1.000000
Bank_Level_Parallism_Ready = 1.000000
write_to_read_ratio_blp_rw_average = 0.000000
GrpLevelPara = 1.000000 

BW Util details:
bwutil = 0.000567 
total_CMD = 28215 
util_bw = 16 
Wasted_Col = 18 
Wasted_Row = 0 
Idle = 28181 

BW Util Bottlenecks: 
RCDc_limit = 12 
RCDWRc_limit = 0 
WTRc_limit = 0 
RTWc_limit = 0 
CCDLc_limit = 6 
rwq = 0 
CCDLc_limit_alone = 6 
WTRc_limit_alone = 0 
RTWc_limit_alone = 0 

Commands details: 
total_CMD = 28215 
n_nop = 28206 
Read = 8 
Write = 0 
L2_Alloc = 0 
L2_WB = 0 
n_act = 1 
n_pre = 0 
n_ref = 0 
n_req = 8 
total_req = 8 

Dual Bus Interface Util: 
issued_total_row = 1 
issued_total_col = 8 
Row_Bus_Util =  0.000035 
CoL_Bus_Util = 0.000284 
Either_Row_CoL_Bus_Util = 0.000319 
Issued_on_Two_Bus_Simul_Util = 0.000000 
issued_two_Eff = 0.000000 
queue_avg = 0.001701 


dram_util_bins: 0 0 0 0 0 0 0 0 0 0
dram_eff_bins: 0 0 0 0 0 0 0 0 0 0
mrqq: max=3 avg=0.00170122
Memory Partition 2: 
Cache L2_bank_004:
MSHR contents

Cache L2_bank_005:
MSHR contents

In Dram Latency Queue (total = 0): 
DRAM[2]: 16 bks, busW=4 BL=8 CL=12, tRRD=6 tCCD=2, tRCD=12 tRAS=28 tRP=12 tRC=40
n_cmd=28215 n_nop=28185 n_act=2 n_pre=0 n_ref_event=0 n_req=28 n_rd=28 n_rd_L2_A=0 n_write=0 n_wr_bk=0 bw_util=0.001985
n_activity=185 dram_eff=0.3027
bk0: 8a 28192i bk1: 20a 28172i bk2: 0a 28214i bk3: 0a 28215i bk4: 0a 28215i bk5: 0a 28215i bk6: 0a 28215i bk7: 0a 28215i bk8: 0a 28215i bk9: 0a 28215i bk10: 0a 28215i bk11: 0a 28215i bk12: 0a 28215i bk13: 0a 28215i bk14: 0a 28215i bk15: 0a 28215i 

------------------------------------------------------------------------

Row_Buffer_Locality = 0.964286
Row_Buffer_Locality_read = 0.964286
Row_Buffer_Locality_write = -nan
Bank_Level_Parallism = 1.000000
Bank_Level_Parallism_Col = 0.000000
Bank_Level_Parallism_Ready = 1.000000
write_to_read_ratio_blp_rw_average = 0.000000
GrpLevelPara = 0.000000 

BW Util details:
bwutil = 0.001985 
total_CMD = 28215 
util_bw = 56 
Wasted_Col = 45 
Wasted_Row = 0 
Idle = 28114 

BW Util Bottlenecks: 
RCDc_limit = 24 
RCDWRc_limit = 0 
WTRc_limit = 0 
RTWc_limit = 0 
CCDLc_limit = 21 
rwq = 0 
CCDLc_limit_alone = 21 
WTRc_limit_alone = 0 
RTWc_limit_alone = 0 

Commands details: 
total_CMD = 28215 
n_nop = 28185 
Read = 28 
Write = 0 
L2_Alloc = 0 
L2_WB = 0 
n_act = 2 
n_pre = 0 
n_ref = 0 
n_req = 28 
total_req = 28 

Dual Bus Interface Util: 
issued_total_row = 2 
issued_total_col = 28 
Row_Bus_Util =  0.000071 
CoL_Bus_Util = 0.000992 
Either_Row_CoL_Bus_Util = 0.001063 
Issued_on_Two_Bus_Simul_Util = 0.000000 
issued_two_Eff = 0.000000 
queue_avg = 0.003970 


dram_util_bins: 0 0 0 0 0 0 0 0 0 0
dram_eff_bins: 0 0 0 0 0 0 0 0 0 0
mrqq: max=3 avg=0.00396952
Memory Partition 3: 
Cache L2_bank_006:
MSHR contents

Cache L2_bank_007:
MSHR contents

In Dram Latency Queue (total = 0): 
DRAM[3]: 16 bks, busW=4 BL=8 CL=12, tRRD=6 tCCD=2, tRCD=12 tRAS=28 tRP=12 tRC=40
n_cmd=28215 n_nop=28206 n_act=1 n_pre=0 n_ref_event=4567177155082382276 n_req=8 n_rd=8 n_rd_L2_A=0 n_write=0 n_wr_bk=0 bw_util=0.0005671
n_activity=61 dram_eff=0.2623
bk0: 8a 28191i bk1: 0a 28215i bk2: 0a 28215i bk3: 0a 28215i bk4: 0a 28215i bk5: 0a 28215i bk6: 0a 28215i bk7: 0a 28215i bk8: 0a 28215i bk9: 0a 28215i bk10: 0a 28215i bk11: 0a 28215i bk12: 0a 28215i bk13: 0a 28215i bk14: 0a 28215i bk15: 0a 28215i 

------------------------------------------------------------------------

Row_Buffer_Locality = 0.875000
Row_Buffer_Locality_read = 0.875000
Row_Buffer_Locality_write = -nan
Bank_Level_Parallism = 1.000000
Bank_Level_Parallism_Col = 92.653732
Bank_Level_Parallism_Ready = 1.000000
write_to_read_ratio_blp_rw_average = 0.000000
GrpLevelPara = 0.092537 

BW Util details:
bwutil = 0.000567 
total_CMD = 28215 
util_bw = 16 
Wasted_Col = 18 
Wasted_Row = 0 
Idle = 28181 

BW Util Bottlenecks: 
RCDc_limit = 12 
RCDWRc_limit = 0 
WTRc_limit = 0 
RTWc_limit = 0 
CCDLc_limit = 6 
rwq = 0 
CCDLc_limit_alone = 6 
WTRc_limit_alone = 0 
RTWc_limit_alone = 0 

Commands details: 
total_CMD = 28215 
n_nop = 28206 
Read = 8 
Write = 0 
L2_Alloc = 0 
L2_WB = 0 
n_act = 1 
n_pre = 0 
n_ref = 4567177155082382276 
n_req = 8 
total_req = 8 

Dual Bus Interface Util: 
issued_total_row = 1 
issued_total_col = 8 
Row_Bus_Util =  0.000035 
CoL_Bus_Util = 0.000284 
Either_Row_CoL_Bus_Util = 0.000319 
Issued_on_Two_Bus_Simul_Util = 0.000000 
issued_two_Eff = 0.000000 
queue_avg = 0.001701 


dram_util_bins: 0 0 0 0 0 0 0 0 0 0
dram_eff_bins: 0 0 0 0 0 0 0 0 0 0
mrqq: max=3 avg=0.00170122
Memory Partition 4: 
Cache L2_bank_008:
MSHR contents

Cache L2_bank_009:
MSHR contents

In Dram Latency Queue (total = 0): 
DRAM[4]: 16 bks, busW=4 BL=8 CL=12, tRRD=6 tCCD=2, tRCD=12 tRAS=28 tRP=12 tRC=40
n_cmd=28215 n_nop=28184 n_act=2 n_pre=1 n_ref_event=0 n_req=28 n_rd=28 n_rd_L2_A=0 n_write=0 n_wr_bk=0 bw_util=0.001985
n_activity=197 dram_eff=0.2843
bk0: 28a 28137i bk1: 0a 28214i bk2: 0a 28214i bk3: 0a 28214i bk4: 0a 28214i bk5: 0a 28215i bk6: 0a 28215i bk7: 0a 28215i bk8: 0a 28215i bk9: 0a 28215i bk10: 0a 28215i bk11: 0a 28215i bk12: 0a 28215i bk13: 0a 28216i bk14: 0a 28216i bk15: 0a 28216i 

------------------------------------------------------------------------

Row_Buffer_Locality = 0.964286
Row_Buffer_Locality_read = 0.964286
Row_Buffer_Locality_write = -nan
Bank_Level_Parallism = 1.000000
Bank_Level_Parallism_Col = 1.000000
Bank_Level_Parallism_Ready = 1.000000
write_to_read_ratio_blp_rw_average = 0.000000
GrpLevelPara = 1.000000 

BW Util details:
bwutil = 0.001985 
total_CMD = 28215 
util_bw = 56 
Wasted_Col = 45 
Wasted_Row = 12 
Idle = 28102 

BW Util Bottlenecks: 
RCDc_limit = 24 
RCDWRc_limit = 0 
WTRc_limit = 0 
RTWc_limit = 0 
CCDLc_limit = 21 
rwq = 0 
CCDLc_limit_alone = 21 
WTRc_limit_alone = 0 
RTWc_limit_alone = 0 

Commands details: 
total_CMD = 28215 
n_nop = 28184 
Read = 28 
Write = 0 
L2_Alloc = 0 
L2_WB = 0 
n_act = 2 
n_pre = 1 
n_ref = 0 
n_req = 28 
total_req = 28 

Dual Bus Interface Util: 
issued_total_row = 3 
issued_total_col = 28 
Row_Bus_Util =  0.000106 
CoL_Bus_Util = 0.000992 
Either_Row_CoL_Bus_Util = 0.001099 
Issued_on_Two_Bus_Simul_Util = 0.000000 
issued_two_Eff = 0.000000 
queue_avg = 0.005068 


dram_util_bins: 0 0 0 0 0 0 0 0 0 0
dram_eff_bins: 0 0 0 0 0 0 0 0 0 0
mrqq: max=3 avg=0.00506823
Memory Partition 5: 
Cache L2_bank_010:
MSHR contents

Cache L2_bank_011:
MSHR contents

In Dram Latency Queue (total = 0): 
DRAM[5]: 16 bks, busW=4 BL=8 CL=12, tRRD=6 tCCD=2, tRCD=12 tRAS=28 tRP=12 tRC=40
n_cmd=28215 n_nop=28206 n_act=1 n_pre=0 n_ref_event=0 n_req=8 n_rd=8 n_rd_L2_A=0 n_write=0 n_wr_bk=0 bw_util=0.0005671
n_activity=61 dram_eff=0.2623
bk0: 8a 28191i bk1: 0a 28215i bk2: 0a 28215i bk3: 0a 28215i bk4: 0a 28215i bk5: 0a 28215i bk6: 0a 28215i bk7: 0a 28215i bk8: 0a 28215i bk9: 0a 28215i bk10: 0a 28215i bk11: 0a 28215i bk12: 0a 28215i bk13: 0a 28215i bk14: 0a 28215i bk15: 0a 28215i 

------------------------------------------------------------------------

Row_Buffer_Locality = 0.875000
Row_Buffer_Locality_read = 0.875000
Row_Buffer_Locality_write = -nan
Bank_Level_Parallism = 1.000000
Bank_Level_Parallism_Col = 0.000000
Bank_Level_Parallism_Ready = 1.000000
write_to_read_ratio_blp_rw_average = 0.000000
GrpLevelPara = 0.000000 

BW Util details:
bwutil = 0.000567 
total_CMD = 28215 
util_bw = 16 
Wasted_Col = 18 
Wasted_Row = 0 
Idle = 28181 

BW Util Bottlenecks: 
RCDc_limit = 12 
RCDWRc_limit = 0 
WTRc_limit = 0 
RTWc_limit = 0 
CCDLc_limit = 6 
rwq = 0 
CCDLc_limit_alone = 6 
WTRc_limit_alone = 0 
RTWc_limit_alone = 0 

Commands details: 
total_CMD = 28215 
n_nop = 28206 
Read = 8 
Write = 0 
L2_Alloc = 0 
L2_WB = 0 
n_act = 1 
n_pre = 0 
n_ref = 0 
n_req = 8 
total_req = 8 

Dual Bus Interface Util: 
issued_total_row = 1 
issued_total_col = 8 
Row_Bus_Util =  0.000035 
CoL_Bus_Util = 0.000284 
Either_Row_CoL_Bus_Util = 0.000319 
Issued_on_Two_Bus_Simul_Util = 0.000000 
issued_two_Eff = 0.000000 
queue_avg = 0.001701 


dram_util_bins: 0 0 0 0 0 0 0 0 0 0
dram_eff_bins: 0 0 0 0 0 0 0 0 0 0
mrqq: max=3 avg=0.00170122

========= L2 cache stats =========
L2_cache_bank[0]: Access = 44, Miss = 34, Miss_rate = 0.773, Pending_hits = 0, Reservation_fails = 0
L2_cache_bank[1]: Access = 0, Miss = 0, Miss_rate = -nan, Pending_hits = 0, Reservation_fails = 0
L2_cache_bank[2]: Access = 8, Miss = 8, Miss_rate = 1.000, Pending_hits = 0, Reservation_fails = 0
L2_cache_bank[3]: Access = 0, Miss = 0, Miss_rate = -nan, Pending_hits = 0, Reservation_fails = 0
L2_cache_bank[4]: Access = 8, Miss = 8, Miss_rate = 1.000, Pending_hits = 0, Reservation_fails = 0
L2_cache_bank[5]: Access = 30, Miss = 20, Miss_rate = 0.667, Pending_hits = 0, Reservation_fails = 0
L2_cache_bank[6]: Access = 8, Miss = 8, Miss_rate = 1.000, Pending_hits = 0, Reservation_fails = 0
L2_cache_bank[7]: Access = 0, Miss = 0, Miss_rate = -nan, Pending_hits = 0, Reservation_fails = 0
L2_cache_bank[8]: Access = 38, Miss = 28, Miss_rate = 0.737, Pending_hits = 0, Reservation_fails = 0
L2_cache_bank[9]: Access = 0, Miss = 0, Miss_rate = -nan, Pending_hits = 0, Reservation_fails = 0
L2_cache_bank[10]: Access = 8, Miss = 8, Miss_rate = 1.000, Pending_hits = 0, Reservation_fails = 0
L2_cache_bank[11]: Access = 0, Miss = 0, Miss_rate = -nan, Pending_hits = 0, Reservation_fails = 0
L2_total_cache_accesses = 144
L2_total_cache_misses = 114
L2_total_cache_miss_rate = 0.7917
L2_total_cache_pending_hits = 0
L2_total_cache_reservation_fails = 0
L2_total_cache_breakdown:
	L2_cache_stats_breakdown[GLOBAL_ACC_R][HIT] = 0
	L2_cache_stats_breakdown[GLOBAL_ACC_R][HIT_RESERVED] = 0
	L2_cache_stats_breakdown[GLOBAL_ACC_R][MISS] = 16
	L2_cache_stats_breakdown[GLOBAL_ACC_R][RESERVATION_FAIL] = 0
	L2_cache_stats_breakdown[GLOBAL_ACC_R][SECTOR_MISS] = 48
	L2_cache_stats_breakdown[GLOBAL_ACC_R][MSHR_HIT] = 0
	L2_cache_stats_breakdown[LOCAL_ACC_R][HIT] = 0
	L2_cache_stats_breakdown[LOCAL_ACC_R][HIT_RESERVED] = 0
	L2_cache_stats_breakdown[LOCAL_ACC_R][MISS] = 0
	L2_cache_stats_breakdown[LOCAL_ACC_R][RESERVATION_FAIL] = 0
	L2_cache_stats_breakdown[LOCAL_ACC_R][SECTOR_MISS] = 0
	L2_cache_stats_breakdown[LOCAL_ACC_R][MSHR_HIT] = 0
	L2_cache_stats_breakdown[CONST_ACC_R][HIT] = 0
	L2_cache_stats_breakdown[CONST_ACC_R][HIT_RESERVED] = 0
	L2_cache_stats_breakdown[CONST_ACC_R][MISS] = 1
	L2_cache_stats_breakdown[CONST_ACC_R][RESERVATION_FAIL] = 0
	L2_cache_stats_breakdown[CONST_ACC_R][SECTOR_MISS] = 1
	L2_cache_stats_breakdown[CONST_ACC_R][MSHR_HIT] = 1
	L2_cache_stats_breakdown[TEXTURE_ACC_R][HIT] = 0
	L2_cache_stats_breakdown[TEXTURE_ACC_R][HIT_RESERVED] = 0
	L2_cache_stats_breakdown[TEXTURE_ACC_R][MISS] = 0
	L2_cache_stats_breakdown[TEXTURE_ACC_R][RESERVATION_FAIL] = 0
	L2_cache_stats_breakdown[TEXTURE_ACC_R][SECTOR_MISS] = 0
	L2_cache_stats_breakdown[TEXTURE_ACC_R][MSHR_HIT] = 0
	L2_cache_stats_breakdown[GLOBAL_ACC_W][HIT] = 30
	L2_cache_stats_breakdown[GLOBAL_ACC_W][HIT_RESERVED] = 0
	L2_cache_stats_breakdown[GLOBAL_ACC_W][MISS] = 0
	L2_cache_stats_breakdown[GLOBAL_ACC_W][RESERVATION_FAIL] = 0
	L2_cache_stats_breakdown[GLOBAL_ACC_W][SECTOR_MISS] = 0
	L2_cache_stats_breakdown[GLOBAL_ACC_W][MSHR_HIT] = 0
	L2_cache_stats_breakdown[LOCAL_ACC_W][HIT] = 0
	L2_cache_stats_breakdown[LOCAL_ACC_W][HIT_RESERVED] = 0
	L2_cache_stats_breakdown[LOCAL_ACC_W][MISS] = 0
	L2_cache_stats_breakdown[LOCAL_ACC_W][RESERVATION_FAIL] = 0
	L2_cache_stats_breakdown[LOCAL_ACC_W][SECTOR_MISS] = 0
	L2_cache_stats_breakdown[LOCAL_ACC_W][MSHR_HIT] = 0
	L2_cache_stats_breakdown[L1_WRBK_ACC][HIT] = 0
	L2_cache_stats_breakdown[L1_WRBK_ACC][HIT_RESERVED] = 0
	L2_cache_stats_breakdown[L1_WRBK_ACC][MISS] = 0
	L2_cache_stats_breakdown[L1_WRBK_ACC][RESERVATION_FAIL] = 0
	L2_cache_stats_breakdown[L1_WRBK_ACC][SECTOR_MISS] = 0
	L2_cache_stats_breakdown[L1_WRBK_ACC][MSHR_HIT] = 0
	L2_cache_stats_breakdown[L2_WRBK_ACC][HIT] = 0
	L2_cache_stats_breakdown[L2_WRBK_ACC][HIT_RESERVED] = 0
	L2_cache_stats_breakdown[L2_WRBK_ACC][MISS] = 0
	L2_cache_stats_breakdown[L2_WRBK_ACC][RESERVATION_FAIL] = 0
	L2_cache_stats_breakdown[L2_WRBK_ACC][SECTOR_MISS] = 0
	L2_cache_stats_breakdown[L2_WRBK_ACC][MSHR_HIT] = 0
	L2_cache_stats_breakdown[INST_ACC_R][HIT] = 0
	L2_cache_stats_breakdown[INST_ACC_R][HIT_RESERVED] = 0
	L2_cache_stats_breakdown[INST_ACC_R][MISS] = 12
	L2_cache_stats_breakdown[INST_ACC_R][RESERVATION_FAIL] = 0
	L2_cache_stats_breakdown[INST_ACC_R][SECTOR_MISS] = 36
	L2_cache_stats_breakdown[INST_ACC_R][MSHR_HIT] = 0
	L2_cache_stats_breakdown[L1_WR_ALLOC_R][HIT] = 0
	L2_cache_stats_breakdown[L1_WR_ALLOC_R][HIT_RESERVED] = 0
	L2_cache_stats_breakdown[L1_WR_ALLOC_R][MISS] = 0
	L2_cache_stats_breakdown[L1_WR_ALLOC_R][RESERVATION_FAIL] = 0
	L2_cache_stats_breakdown[L1_WR_ALLOC_R][SECTOR_MISS] = 0
	L2_cache_stats_breakdown[L1_WR_ALLOC_R][MSHR_HIT] = 0
	L2_cache_stats_breakdown[L2_WR_ALLOC_R][HIT] = 0
	L2_cache_stats_breakdown[L2_WR_ALLOC_R][HIT_RESERVED] = 0
	L2_cache_stats_breakdown[L2_WR_ALLOC_R][MISS] = 0
	L2_cache_stats_breakdown[L2_WR_ALLOC_R][RESERVATION_FAIL] = 0
	L2_cache_stats_breakdown[L2_WR_ALLOC_R][SECTOR_MISS] = 0
	L2_cache_stats_breakdown[L2_WR_ALLOC_R][MSHR_HIT] = 0
	L2_cache_stats_breakdown[GLOBAL_ACC_R][TOTAL_ACCESS] = 64
	L2_cache_stats_breakdown[CONST_ACC_R][TOTAL_ACCESS] = 2
	L2_cache_stats_breakdown[GLOBAL_ACC_W][TOTAL_ACCESS] = 30
	L2_cache_stats_breakdown[INST_ACC_R][TOTAL_ACCESS] = 48
L2_total_cache_reservation_fail_breakdown:
L2_cache_data_port_util = 0.000
L2_cache_fill_port_util = 0.000

icnt_total_pkts_mem_to_simt=144
icnt_total_pkts_simt_to_mem=59
LD_mem_lat_dist  0 0 0 0 0 0 0 0 0 0 0 0 0 0 0 0 0 0 0 0 0 0 0 0 0 0 0
ST_mem_lat_dist  0 0 0 0 0 0 0 0 0 0 0 0 0 0 0 0 0 0 0 0 0 0 0 0 0 0 0
----------------------------Interconnect-DETAILS--------------------------------
Class 0:
Packet latency average = 5.29787
	minimum = 5
	maximum = 12
Network latency average = 5.07979
	minimum = 5
	maximum = 6
Slowest packet = 139
Flit latency average = 5
	minimum = 5
	maximum = 5
Slowest flit = 0
Fragmentation average = 0
	minimum = 0
	maximum = 0
Injected packet rate average = 0.000228025
	minimum = 0 (at node 1)
	maximum = 0.00144092 (at node 0)
Accepted packet rate average = 0.000228025
	minimum = 0 (at node 1)
	maximum = 0.00471575 (at node 0)
Injected flit rate average = 0.000246218
	minimum = 0 (at node 1)
	maximum = 0.00193215 (at node 0)
Accepted flit rate average= 0.000246218
	minimum = 0 (at node 1)
	maximum = 0.00471575 (at node 0)
Injected packet length average = 1.07979
Accepted packet length average = 1.07979
Total in-flight flits = 0 (0 measured)
====== Overall Traffic Statistics ======
====== Traffic class 0 ======
Packet latency average = 5.29787 (1 samples)
	minimum = 5 (1 samples)
	maximum = 12 (1 samples)
Network latency average = 5.07979 (1 samples)
	minimum = 5 (1 samples)
	maximum = 6 (1 samples)
Flit latency average = 5 (1 samples)
	minimum = 5 (1 samples)
	maximum = 5 (1 samples)
Fragmentation average = 0 (1 samples)
	minimum = 0 (1 samples)
	maximum = 0 (1 samples)
Injected packet rate average = 0.000228025 (1 samples)
	minimum = 0 (1 samples)
	maximum = 0.00144092 (1 samples)
Accepted packet rate average = 0.000228025 (1 samples)
	minimum = 0 (1 samples)
	maximum = 0.00471575 (1 samples)
Injected flit rate average = 0.000246218 (1 samples)
	minimum = 0 (1 samples)
	maximum = 0.00193215 (1 samples)
Accepted flit rate average = 0.000246218 (1 samples)
	minimum = 0 (1 samples)
	maximum = 0.00471575 (1 samples)
Injected packet size average = 1.07979 (1 samples)
Accepted packet size average = 1.07979 (1 samples)
Hops average = 1 (1 samples)
----------------------------END-of-Interconnect-DETAILS-------------------------


gpgpu_simulation_time = 0 days, 0 hrs, 0 min, 5 sec (5 sec)
gpgpu_simulation_rate = 3976 (inst/sec)
gpgpu_simulation_rate = 6107 (cycle/sec)
gpgpu_silicon_slowdown = 163746x
GPGPU-Sim PTX: Setting up arguments for 8 bytes starting at 0x7ffdadcb06e8..
GPGPU-Sim PTX: Setting up arguments for 4 bytes starting at 0x7ffdadcb06e4..
GPGPU-Sim PTX: Setting up arguments for 4 bytes starting at 0x7ffdadcb06e0..

GPGPU-Sim PTX: cudaLaunch for 0x0x5e26c9360962 (mode=performance simulation) on stream 0
GPGPU-Sim PTX: finding reconvergence points for '_Z13lud_perimeterPfii'...
GPGPU-Sim PTX: Finding dominators for '_Z13lud_perimeterPfii'...
GPGPU-Sim PTX: Finding immediate dominators for '_Z13lud_perimeterPfii'...
GPGPU-Sim PTX: Finding postdominators for '_Z13lud_perimeterPfii'...
GPGPU-Sim PTX: Finding immediate postdominators for '_Z13lud_perimeterPfii'...
GPGPU-Sim PTX: pre-decoding instructions for '_Z13lud_perimeterPfii'...
GPGPU-Sim PTX: reconvergence points for _Z13lud_perimeterPfii...
GPGPU-Sim PTX:  1 (potential) branch divergence @  PC=0x670 (lud.2.sm_30.ptx:277) @%p3 bra BB1_2;
GPGPU-Sim PTX:    immediate post dominator      @  PC=0xca8 (lud.2.sm_30.ptx:482) mov.u32 %r99, %tid.x;
GPGPU-Sim PTX:  2 (potential) branch divergence @  PC=0x678 (lud.2.sm_30.ptx:278) bra.uni BB1_1;
GPGPU-Sim PTX:    immediate post dominator      @  PC=0xa20 (lud.2.sm_30.ptx:399) add.s32 %r17, %r9, 8;
GPGPU-Sim PTX:  3 (potential) branch divergence @  PC=0xa18 (lud.2.sm_30.ptx:396) bra.uni BB1_3;
GPGPU-Sim PTX:    immediate post dominator      @  PC=0xca8 (lud.2.sm_30.ptx:482) mov.u32 %r99, %tid.x;
GPGPU-Sim PTX:  4 (potential) branch divergence @  PC=0xcc0 (lud.2.sm_30.ptx:485) @%p4 bra BB1_5;
GPGPU-Sim PTX:    immediate post dominator      @  PC=0x2690 (lud.2.sm_30.ptx:1317) bar.sync 0;
GPGPU-Sim PTX:  5 (potential) branch divergence @  PC=0xcc8 (lud.2.sm_30.ptx:486) bra.uni BB1_4;
GPGPU-Sim PTX:    immediate post dominator      @  PC=0x1930 (lud.2.sm_30.ptx:887) mov.u32 %r75, _ZZ13lud_perimeterPfiiE8peri_col;
GPGPU-Sim PTX:  6 (potential) branch divergence @  PC=0x1928 (lud.2.sm_30.ptx:884) bra.uni BB1_6;
GPGPU-Sim PTX:    immediate post dominator      @  PC=0x2690 (lud.2.sm_30.ptx:1317) bar.sync 0;
GPGPU-Sim PTX:  7 (potential) branch divergence @  PC=0x26a8 (lud.2.sm_30.ptx:1320) @%p5 bra BB1_8;
GPGPU-Sim PTX:    immediate post dominator      @  PC=0x2b90 (lud.2.sm_30.ptx:1483) ret;
GPGPU-Sim PTX:  8 (potential) branch divergence @  PC=0x26b0 (lud.2.sm_30.ptx:1321) bra.uni BB1_7;
GPGPU-Sim PTX:    immediate post dominator      @  PC=0x2988 (lud.2.sm_30.ptx:1416) mov.u32 %r85, %tid.x;
GPGPU-Sim PTX:  9 (potential) branch divergence @  PC=0x2980 (lud.2.sm_30.ptx:1413) bra.uni BB1_9;
GPGPU-Sim PTX:    immediate post dominator      @  PC=0x2b90 (lud.2.sm_30.ptx:1483) ret;
GPGPU-Sim PTX: ... end of reconvergence points for _Z13lud_perimeterPfii
GPGPU-Sim PTX: ... done pre-decoding instructions for '_Z13lud_perimeterPfii'.
GPGPU-Sim PTX: pushing kernel '_Z13lud_perimeterPfii' to stream 0, gridDim= (31,1,1) blockDim = (32,1,1) 
GPGPU-Sim uArch: Shader 1 bind to kernel 2 '_Z13lud_perimeterPfii'
GPGPU-Sim uArch: CTA/core = 8, limited by: cta_limit
GPGPU-Sim uArch: Shader 2 bind to kernel 2 '_Z13lud_perimeterPfii'
GPGPU-Sim uArch: Shader 3 bind to kernel 2 '_Z13lud_perimeterPfii'
GPGPU-Sim uArch: Shader 4 bind to kernel 2 '_Z13lud_perimeterPfii'
GPGPU-Sim uArch: Shader 5 bind to kernel 2 '_Z13lud_perimeterPfii'
GPGPU-Sim uArch: Shader 6 bind to kernel 2 '_Z13lud_perimeterPfii'
GPGPU-Sim uArch: Shader 7 bind to kernel 2 '_Z13lud_perimeterPfii'
GPGPU-Sim uArch: Shader 8 bind to kernel 2 '_Z13lud_perimeterPfii'
GPGPU-Sim uArch: Shader 9 bind to kernel 2 '_Z13lud_perimeterPfii'
GPGPU-Sim uArch: Shader 10 bind to kernel 2 '_Z13lud_perimeterPfii'
GPGPU-Sim uArch: Shader 11 bind to kernel 2 '_Z13lud_perimeterPfii'
GPGPU-Sim uArch: Shader 12 bind to kernel 2 '_Z13lud_perimeterPfii'
GPGPU-Sim uArch: Shader 13 bind to kernel 2 '_Z13lud_perimeterPfii'
GPGPU-Sim uArch: Shader 14 bind to kernel 2 '_Z13lud_perimeterPfii'
GPGPU-Sim uArch: Shader 0 bind to kernel 2 '_Z13lud_perimeterPfii'
Destroy streams for kernel 2: size 0
kernel_name = _Z13lud_perimeterPfii 
kernel_launch_uid = 2 
kernel_stream_id = 103521661596816
gpu_sim_cycle = 34988
gpu_sim_insn = 610080
gpu_ipc =      17.4368
gpu_tot_sim_cycle = 65524
gpu_tot_sim_insn = 629960
gpu_tot_ipc =       9.6142
gpu_tot_issued_cta = 32
gpu_occupancy = 4.3053% 
gpu_tot_occupancy = 4.1830% 
max_total_param_size = 0
gpu_stall_dramfull = 0
gpu_stall_icnt2sh    = 0
partiton_level_parallism =       0.0960
partiton_level_parallism_total  =       0.0520
partiton_level_parallism_util =       1.1367
partiton_level_parallism_util_total  =       1.1347
L2_BW  =      10.5087 GB/Sec
L2_BW_total  =       5.6817 GB/Sec
gpu_total_sim_rate=23331

========= Core cache stats =========
L1I_cache:
	L1I_total_cache_accesses = 20582
	L1I_total_cache_misses = 2312
	L1I_total_cache_miss_rate = 0.1123
	L1I_total_cache_pending_hits = 0
	L1I_total_cache_reservation_fails = 0
L1D_cache:
	L1D_cache_core[0]: Access = 189, Miss = 96, Miss_rate = 0.508, Pending_hits = 15, Reservation_fails = 0
	L1D_cache_core[1]: Access = 237, Miss = 96, Miss_rate = 0.405, Pending_hits = 16, Reservation_fails = 0
	L1D_cache_core[2]: Access = 158, Miss = 88, Miss_rate = 0.557, Pending_hits = 16, Reservation_fails = 0
	L1D_cache_core[3]: Access = 158, Miss = 88, Miss_rate = 0.557, Pending_hits = 16, Reservation_fails = 0
	L1D_cache_core[4]: Access = 158, Miss = 80, Miss_rate = 0.506, Pending_hits = 16, Reservation_fails = 0
	L1D_cache_core[5]: Access = 158, Miss = 80, Miss_rate = 0.506, Pending_hits = 16, Reservation_fails = 0
	L1D_cache_core[6]: Access = 158, Miss = 80, Miss_rate = 0.506, Pending_hits = 16, Reservation_fails = 0
	L1D_cache_core[7]: Access = 158, Miss = 80, Miss_rate = 0.506, Pending_hits = 16, Reservation_fails = 0
	L1D_cache_core[8]: Access = 158, Miss = 80, Miss_rate = 0.506, Pending_hits = 16, Reservation_fails = 0
	L1D_cache_core[9]: Access = 158, Miss = 80, Miss_rate = 0.506, Pending_hits = 16, Reservation_fails = 0
	L1D_cache_core[10]: Access = 158, Miss = 80, Miss_rate = 0.506, Pending_hits = 16, Reservation_fails = 0
	L1D_cache_core[11]: Access = 158, Miss = 80, Miss_rate = 0.506, Pending_hits = 16, Reservation_fails = 0
	L1D_cache_core[12]: Access = 158, Miss = 80, Miss_rate = 0.506, Pending_hits = 16, Reservation_fails = 0
	L1D_cache_core[13]: Access = 158, Miss = 80, Miss_rate = 0.506, Pending_hits = 16, Reservation_fails = 0
	L1D_cache_core[14]: Access = 158, Miss = 80, Miss_rate = 0.506, Pending_hits = 16, Reservation_fails = 0
	L1D_total_cache_accesses = 2480
	L1D_total_cache_misses = 1248
	L1D_total_cache_miss_rate = 0.5032
	L1D_total_cache_pending_hits = 239
	L1D_total_cache_reservation_fails = 0
	L1D_cache_data_port_util = 0.002
	L1D_cache_fill_port_util = 0.002
L1C_cache:
	L1C_total_cache_accesses = 285
	L1C_total_cache_misses = 90
	L1C_total_cache_miss_rate = 0.3158
	L1C_total_cache_pending_hits = 0
	L1C_total_cache_reservation_fails = 0
L1T_cache:
	L1T_total_cache_accesses = 0
	L1T_total_cache_misses = 0
	L1T_total_cache_pending_hits = 0
	L1T_total_cache_reservation_fails = 0

Total_core_cache_stats:
	Total_core_cache_stats_breakdown[GLOBAL_ACC_R][HIT] = 33
	Total_core_cache_stats_breakdown[GLOBAL_ACC_R][HIT_RESERVED] = 239
	Total_core_cache_stats_breakdown[GLOBAL_ACC_R][MISS] = 1216
	Total_core_cache_stats_breakdown[GLOBAL_ACC_R][RESERVATION_FAIL] = 0
	Total_core_cache_stats_breakdown[GLOBAL_ACC_R][SECTOR_MISS] = 0
	Total_core_cache_stats_breakdown[GLOBAL_ACC_R][MSHR_HIT] = 239
	Total_core_cache_stats_breakdown[LOCAL_ACC_R][HIT] = 0
	Total_core_cache_stats_breakdown[LOCAL_ACC_R][HIT_RESERVED] = 0
	Total_core_cache_stats_breakdown[LOCAL_ACC_R][MISS] = 0
	Total_core_cache_stats_breakdown[LOCAL_ACC_R][RESERVATION_FAIL] = 0
	Total_core_cache_stats_breakdown[LOCAL_ACC_R][SECTOR_MISS] = 0
	Total_core_cache_stats_breakdown[LOCAL_ACC_R][MSHR_HIT] = 0
	Total_core_cache_stats_breakdown[CONST_ACC_R][HIT] = 192
	Total_core_cache_stats_breakdown[CONST_ACC_R][HIT_RESERVED] = 0
	Total_core_cache_stats_breakdown[CONST_ACC_R][MISS] = 87
	Total_core_cache_stats_breakdown[CONST_ACC_R][RESERVATION_FAIL] = 0
	Total_core_cache_stats_breakdown[CONST_ACC_R][SECTOR_MISS] = 0
	Total_core_cache_stats_breakdown[CONST_ACC_R][MSHR_HIT] = 73
	Total_core_cache_stats_breakdown[TEXTURE_ACC_R][HIT] = 0
	Total_core_cache_stats_breakdown[TEXTURE_ACC_R][HIT_RESERVED] = 0
	Total_core_cache_stats_breakdown[TEXTURE_ACC_R][MISS] = 0
	Total_core_cache_stats_breakdown[TEXTURE_ACC_R][RESERVATION_FAIL] = 0
	Total_core_cache_stats_breakdown[TEXTURE_ACC_R][SECTOR_MISS] = 0
	Total_core_cache_stats_breakdown[TEXTURE_ACC_R][MSHR_HIT] = 0
	Total_core_cache_stats_breakdown[GLOBAL_ACC_W][HIT] = 945
	Total_core_cache_stats_breakdown[GLOBAL_ACC_W][HIT_RESERVED] = 0
	Total_core_cache_stats_breakdown[GLOBAL_ACC_W][MISS] = 16
	Total_core_cache_stats_breakdown[GLOBAL_ACC_W][RESERVATION_FAIL] = 0
	Total_core_cache_stats_breakdown[GLOBAL_ACC_W][SECTOR_MISS] = 0
	Total_core_cache_stats_breakdown[GLOBAL_ACC_W][MSHR_HIT] = 0
	Total_core_cache_stats_breakdown[LOCAL_ACC_W][HIT] = 0
	Total_core_cache_stats_breakdown[LOCAL_ACC_W][HIT_RESERVED] = 0
	Total_core_cache_stats_breakdown[LOCAL_ACC_W][MISS] = 0
	Total_core_cache_stats_breakdown[LOCAL_ACC_W][RESERVATION_FAIL] = 0
	Total_core_cache_stats_breakdown[LOCAL_ACC_W][SECTOR_MISS] = 0
	Total_core_cache_stats_breakdown[LOCAL_ACC_W][MSHR_HIT] = 0
	Total_core_cache_stats_breakdown[L1_WRBK_ACC][HIT] = 0
	Total_core_cache_stats_breakdown[L1_WRBK_ACC][HIT_RESERVED] = 0
	Total_core_cache_stats_breakdown[L1_WRBK_ACC][MISS] = 0
	Total_core_cache_stats_breakdown[L1_WRBK_ACC][RESERVATION_FAIL] = 0
	Total_core_cache_stats_breakdown[L1_WRBK_ACC][SECTOR_MISS] = 0
	Total_core_cache_stats_breakdown[L1_WRBK_ACC][MSHR_HIT] = 0
	Total_core_cache_stats_breakdown[L2_WRBK_ACC][HIT] = 0
	Total_core_cache_stats_breakdown[L2_WRBK_ACC][HIT_RESERVED] = 0
	Total_core_cache_stats_breakdown[L2_WRBK_ACC][MISS] = 0
	Total_core_cache_stats_breakdown[L2_WRBK_ACC][RESERVATION_FAIL] = 0
	Total_core_cache_stats_breakdown[L2_WRBK_ACC][SECTOR_MISS] = 0
	Total_core_cache_stats_breakdown[L2_WRBK_ACC][MSHR_HIT] = 0
	Total_core_cache_stats_breakdown[INST_ACC_R][HIT] = 16610
[...]
MSHR contents

In Dram Latency Queue (total = 0): 
DRAM[0]: 16 bks, busW=4 BL=8 CL=12, tRRD=6 tCCD=2, tRCD=12 tRAS=28 tRP=12 tRC=40
n_cmd=2134140 n_nop=2059147 n_act=5719 n_pre=5703 n_ref_event=0 n_req=60254 n_rd=44208 n_rd_L2_A=0 n_write=0 n_wr_bk=19616 bw_util=0.05981
n_activity=290832 dram_eff=0.4389
bk0: 2562a 2102206i bk1: 3426a 2097583i bk2: 2280a 2107502i bk3: 3020a 2101189i bk4: 2598a 2101546i bk5: 3458a 2096390i bk6: 2548a 2105654i bk7: 3468a 2098088i bk8: 2832a 2101099i bk9: 3890a 2092588i bk10: 2104a 2106528i bk11: 2940a 2098486i bk12: 1908a 2109034i bk13: 2784a 2102570i bk14: 1812a 2112317i bk15: 2578a 2105296i 

------------------------------------------------------------------------

Row_Buffer_Locality = 0.905268
Row_Buffer_Locality_read = 0.951683
Row_Buffer_Locality_write = 0.777390
Bank_Level_Parallism = 2.337722
Bank_Level_Parallism_Col = 2.272217
Bank_Level_Parallism_Ready = 1.232127
write_to_read_ratio_blp_rw_average = 0.507894
GrpLevelPara = 1.681155 

BW Util details:
bwutil = 0.059812 
total_CMD = 2134140 
util_bw = 127648 
Wasted_Col = 83423 
Wasted_Row = 33586 
Idle = 1889483 

BW Util Bottlenecks: 
RCDc_limit = 18864 
RCDWRc_limit = 15382 
WTRc_limit = 15804 
RTWc_limit = 63836 
CCDLc_limit = 49207 
rwq = 0 
CCDLc_limit_alone = 32722 
WTRc_limit_alone = 14246 
RTWc_limit_alone = 48909 

Commands details: 
total_CMD = 2134140 
n_nop = 2059147 
Read = 44208 
Write = 0 
L2_Alloc = 0 
L2_WB = 19616 
n_act = 5719 
n_pre = 5703 
n_ref = 0 
n_req = 60254 
total_req = 63824 

Dual Bus Interface Util: 
issued_total_row = 11422 
issued_total_col = 63824 
Row_Bus_Util =  0.005352 
CoL_Bus_Util = 0.029906 
Either_Row_CoL_Bus_Util = 0.035140 
Issued_on_Two_Bus_Simul_Util = 0.000119 
issued_two_Eff = 0.003374 
queue_avg = 1.209357 


dram_util_bins: 0 0 0 0 0 0 0 0 0 0
dram_eff_bins: 0 0 0 0 0 0 0 0 0 0
mrqq: max=64 avg=1.20936
Memory Partition 1: 
Cache L2_bank_002:
MSHR contents

Cache L2_bank_003:
MSHR contents

In Dram Latency Queue (total = 0): 
DRAM[1]: 16 bks, busW=4 BL=8 CL=12, tRRD=6 tCCD=2, tRCD=12 tRAS=28 tRP=12 tRC=40
n_cmd=2134140 n_nop=2049175 n_act=5889 n_pre=5873 n_ref_event=0 n_req=69293 n_rd=50422 n_rd_L2_A=0 n_write=0 n_wr_bk=23059 bw_util=0.06886
n_activity=310810 dram_eff=0.4728
bk0: 3030a 2097591i bk1: 3714a 2093199i bk2: 2722a 2101467i bk3: 3262a 2097359i bk4: 3194a 2094105i bk5: 3738a 2087363i bk6: 3232a 2097149i bk7: 3696a 2093068i bk8: 3616a 2091744i bk9: 4150a 2087825i bk10: 2764a 2098684i bk11: 3056a 2093981i bk12: 2364a 2100813i bk13: 2858a 2097709i bk14: 2258a 2104788i bk15: 2768a 2101860i 

------------------------------------------------------------------------

Row_Buffer_Locality = 0.915215
Row_Buffer_Locality_read = 0.957003
Row_Buffer_Locality_write = 0.803561
Bank_Level_Parallism = 2.547573
Bank_Level_Parallism_Col = 2.484095
Bank_Level_Parallism_Ready = 1.270480
write_to_read_ratio_blp_rw_average = 0.527211
GrpLevelPara = 1.810030 

BW Util details:
bwutil = 0.068862 
total_CMD = 2134140 
util_bw = 146962 
Wasted_Col = 88046 
Wasted_Row = 32215 
Idle = 1866917 

BW Util Bottlenecks: 
RCDc_limit = 18561 
RCDWRc_limit = 14722 
WTRc_limit = 18798 
RTWc_limit = 76857 
CCDLc_limit = 53005 
rwq = 0 
CCDLc_limit_alone = 34825 
WTRc_limit_alone = 16843 
RTWc_limit_alone = 60632 

Commands details: 
total_CMD = 2134140 
n_nop = 2049175 
Read = 50422 
Write = 0 
L2_Alloc = 0 
L2_WB = 23059 
n_act = 5889 
n_pre = 5873 
n_ref = 0 
n_req = 69293 
total_req = 73481 

Dual Bus Interface Util: 
issued_total_row = 11762 
issued_total_col = 73481 
Row_Bus_Util =  0.005511 
CoL_Bus_Util = 0.034431 
Either_Row_CoL_Bus_Util = 0.039812 
Issued_on_Two_Bus_Simul_Util = 0.000130 
issued_two_Eff = 0.003272 
queue_avg = 1.580619 


dram_util_bins: 0 0 0 0 0 0 0 0 0 0
dram_eff_bins: 0 0 0 0 0 0 0 0 0 0
mrqq: max=64 avg=1.58062
Memory Partition 2: 
Cache L2_bank_004:
MSHR contents

Cache L2_bank_005:
MSHR contents

In Dram Latency Queue (total = 0): 
DRAM[2]: 16 bks, busW=4 BL=8 CL=12, tRRD=6 tCCD=2, tRCD=12 tRAS=28 tRP=12 tRC=40
n_cmd=2134140 n_nop=2059021 n_act=5766 n_pre=5750 n_ref_event=0 n_req=60283 n_rd=44230 n_rd_L2_A=0 n_write=0 n_wr_bk=19628 bw_util=0.05984
n_activity=291801 dram_eff=0.4377
bk0: 3460a 2096021i bk1: 2558a 2102430i bk2: 3030a 2101805i bk3: 2276a 2107942i bk4: 3470a 2095724i bk5: 2588a 2102183i bk6: 3484a 2097928i bk7: 2548a 2104688i bk8: 3898a 2092169i bk9: 2836a 2099798i bk10: 3028a 2099127i bk11: 1984a 2106492i bk12: 2768a 2102042i bk13: 1918a 2110111i bk14: 2598a 2105242i bk15: 1786a 2112931i 

------------------------------------------------------------------------

Row_Buffer_Locality = 0.904583
Row_Buffer_Locality_read = 0.951775
Row_Buffer_Locality_write = 0.774559
Bank_Level_Parallism = 2.334249
Bank_Level_Parallism_Col = 0.000000
Bank_Level_Parallism_Ready = 1.240385
write_to_read_ratio_blp_rw_average = 0.000000
GrpLevelPara = 0.000000 

BW Util details:
bwutil = 0.059844 
total_CMD = 2134140 
util_bw = 127716 
Wasted_Col = 83644 
Wasted_Row = 34242 
Idle = 1888538 

BW Util Bottlenecks: 
RCDc_limit = 18946 
RCDWRc_limit = 15415 
WTRc_limit = 14749 
RTWc_limit = 63796 
CCDLc_limit = 48152 
rwq = 0 
CCDLc_limit_alone = 32363 
WTRc_limit_alone = 13260 
RTWc_limit_alone = 49496 

Commands details: 
total_CMD = 2134140 
n_nop = 2059021 
Read = 44230 
Write = 0 
L2_Alloc = 0 
L2_WB = 19628 
n_act = 5766 
n_pre = 5750 
n_ref = 0 
n_req = 60283 
total_req = 63858 

Dual Bus Interface Util: 
issued_total_row = 11516 
issued_total_col = 63858 
Row_Bus_Util =  0.005396 
CoL_Bus_Util = 0.029922 
Either_Row_CoL_Bus_Util = 0.035199 
Issued_on_Two_Bus_Simul_Util = 0.000119 
issued_two_Eff = 0.003395 
queue_avg = 1.186830 


dram_util_bins: 0 0 0 0 0 0 0 0 0 0
dram_eff_bins: 0 0 0 0 0 0 0 0 0 0
mrqq: max=64 avg=1.18683
Memory Partition 3: 
Cache L2_bank_006:
MSHR contents

Cache L2_bank_007:
MSHR contents

In Dram Latency Queue (total = 0): 
DRAM[3]: 16 bks, busW=4 BL=8 CL=12, tRRD=6 tCCD=2, tRCD=12 tRAS=28 tRP=12 tRC=40
n_cmd=2134140 n_nop=2049079 n_act=5930 n_pre=5914 n_ref_event=4567177155082382276 n_req=69303 n_rd=50426 n_rd_L2_A=0 n_write=0 n_wr_bk=23069 bw_util=0.06888
n_activity=310959 dram_eff=0.4727
bk0: 3710a 2091225i bk1: 3040a 2096882i bk2: 3276a 2095596i bk3: 2722a 2101712i bk4: 3732a 2086975i bk5: 3206a 2093655i bk6: 3712a 2092387i bk7: 3212a 2097422i bk8: 4146a 2087827i bk9: 3630a 2091264i bk10: 3156a 2095961i bk11: 2634a 2097355i bk12: 2858a 2096583i bk13: 2364a 2102780i bk14: 2784a 2102111i bk15: 2244a 2105483i 

------------------------------------------------------------------------

Row_Buffer_Locality = 0.914650
Row_Buffer_Locality_read = 0.956828
Row_Buffer_Locality_write = 0.801981
Bank_Level_Parallism = 2.558567
Bank_Level_Parallism_Col = 2.633729
Bank_Level_Parallism_Ready = 1.280651
write_to_read_ratio_blp_rw_average = 0.527577
GrpLevelPara = 1.809610 

BW Util details:
bwutil = 0.068876 
total_CMD = 2134140 
util_bw = 146990 
Wasted_Col = 87764 
Wasted_Row = 32697 
Idle = 1866689 

BW Util Bottlenecks: 
RCDc_limit = 18520 
RCDWRc_limit = 14766 
WTRc_limit = 18591 
RTWc_limit = 76910 
CCDLc_limit = 52786 
rwq = 0 
CCDLc_limit_alone = 34250 
WTRc_limit_alone = 16707 
RTWc_limit_alone = 60258 

Commands details: 
total_CMD = 2134140 
n_nop = 2049079 
Read = 50426 
Write = 0 
L2_Alloc = 0 
L2_WB = 23069 
n_act = 5930 
n_pre = 5914 
n_ref = 4567177155082382276 
n_req = 69303 
total_req = 73495 

Dual Bus Interface Util: 
issued_total_row = 11844 
issued_total_col = 73495 
Row_Bus_Util =  0.005550 
CoL_Bus_Util = 0.034438 
Either_Row_CoL_Bus_Util = 0.039857 
Issued_on_Two_Bus_Simul_Util = 0.000130 
issued_two_Eff = 0.003268 
queue_avg = 1.531579 


dram_util_bins: 0 0 0 0 0 0 0 0 0 0
dram_eff_bins: 0 0 0 0 0 0 0 0 0 0
mrqq: max=64 avg=1.53158
Memory Partition 4: 
Cache L2_bank_008:
MSHR contents

Cache L2_bank_009:
MSHR contents

In Dram Latency Queue (total = 0): 
DRAM[4]: 16 bks, busW=4 BL=8 CL=12, tRRD=6 tCCD=2, tRCD=12 tRAS=28 tRP=12 tRC=40
n_cmd=2134140 n_nop=2059430 n_act=5726 n_pre=5710 n_ref_event=0 n_req=59998 n_rd=44008 n_rd_L2_A=0 n_write=0 n_wr_bk=19540 bw_util=0.05955
n_activity=290123 dram_eff=0.4381
bk0: 2540a 2102700i bk1: 3394a 2096731i bk2: 2292a 2107678i bk3: 3030a 2101942i bk4: 2560a 2102000i bk5: 3464a 2095742i bk6: 2542a 2105029i bk7: 3476a 2096694i bk8: 2810a 2102258i bk9: 3896a 2092316i bk10: 2068a 2107858i bk11: 2900a 2099155i bk12: 1904a 2110354i bk13: 2762a 2104504i bk14: 1794a 2113221i bk15: 2576a 2104889i 

------------------------------------------------------------------------

Row_Buffer_Locality = 0.904813
Row_Buffer_Locality_read = 0.951532
Row_Buffer_Locality_write = 0.776235
Bank_Level_Parallism = 2.327127
Bank_Level_Parallism_Col = 2.259395
Bank_Level_Parallism_Ready = 1.222037
write_to_read_ratio_blp_rw_average = 0.508046
GrpLevelPara = 1.678483 

BW Util details:
bwutil = 0.059554 
total_CMD = 2134140 
util_bw = 127096 
Wasted_Col = 82831 
Wasted_Row = 33572 
Idle = 1890641 

BW Util Bottlenecks: 
RCDc_limit = 19094 
RCDWRc_limit = 15366 
WTRc_limit = 15528 
RTWc_limit = 61745 
CCDLc_limit = 47329 
rwq = 0 
CCDLc_limit_alone = 31486 
WTRc_limit_alone = 13960 
RTWc_limit_alone = 47470 

Commands details: 
total_CMD = 2134140 
n_nop = 2059430 
Read = 44008 
Write = 0 
L2_Alloc = 0 
L2_WB = 19540 
n_act = 5726 
n_pre = 5710 
n_ref = 0 
n_req = 59998 
total_req = 63548 

Dual Bus Interface Util: 
issued_total_row = 11436 
issued_total_col = 63548 
Row_Bus_Util =  0.005359 
CoL_Bus_Util = 0.029777 
Either_Row_CoL_Bus_Util = 0.035007 
Issued_on_Two_Bus_Simul_Util = 0.000128 
issued_two_Eff = 0.003668 
queue_avg = 1.190360 


dram_util_bins: 0 0 0 0 0 0 0 0 0 0
dram_eff_bins: 0 0 0 0 0 0 0 0 0 0
mrqq: max=64 avg=1.19036
Memory Partition 5: 
Cache L2_bank_010:
MSHR contents

Cache L2_bank_011:
MSHR contents

In Dram Latency Queue (total = 0): 
DRAM[5]: 16 bks, busW=4 BL=8 CL=12, tRRD=6 tCCD=2, tRCD=12 tRAS=28 tRP=12 tRC=40
n_cmd=2134140 n_nop=2051889 n_act=5560 n_pre=5544 n_ref_event=0 n_req=67235 n_rd=49022 n_rd_L2_A=0 n_write=0 n_wr_bk=22378 bw_util=0.06691
n_activity=294798 dram_eff=0.4844
bk0: 3016a 2094782i bk1: 3428a 2095580i bk2: 2742a 2100822i bk3: 3174a 2097598i bk4: 3184a 2091555i bk5: 3590a 2090127i bk6: 3238a 2095569i bk7: 3580a 2093621i bk8: 3614a 2090103i bk9: 3912a 2088383i bk10: 2694a 2096373i bk11: 2898a 2097723i bk12: 2338a 2100754i bk13: 2726a 2098670i bk14: 2248a 2102256i bk15: 2640a 2102376i 

------------------------------------------------------------------------

Row_Buffer_Locality = 0.917528
Row_Buffer_Locality_read = 0.958549
Row_Buffer_Locality_write = 0.807116
Bank_Level_Parallism = 2.688601
Bank_Level_Parallism_Col = 0.000000
Bank_Level_Parallism_Ready = 1.272571
write_to_read_ratio_blp_rw_average = 0.000000
GrpLevelPara = 0.000000 

BW Util details:
bwutil = 0.066912 
total_CMD = 2134140 
util_bw = 142800 
Wasted_Col = 84273 
Wasted_Row = 26429 
Idle = 1880638 

BW Util Bottlenecks: 
RCDc_limit = 17194 
RCDWRc_limit = 13381 
WTRc_limit = 18089 
RTWc_limit = 83451 
CCDLc_limit = 47886 
rwq = 0 
CCDLc_limit_alone = 33109 
WTRc_limit_alone = 16570 
RTWc_limit_alone = 70193 

Commands details: 
total_CMD = 2134140 
n_nop = 2051889 
Read = 49022 
Write = 0 
L2_Alloc = 0 
L2_WB = 22378 
n_act = 5560 
n_pre = 5544 
n_ref = 0 
n_req = 67235 
total_req = 71400 

Dual Bus Interface Util: 
issued_total_row = 11104 
issued_total_col = 71400 
Row_Bus_Util =  0.005203 
CoL_Bus_Util = 0.033456 
Either_Row_CoL_Bus_Util = 0.038541 
Issued_on_Two_Bus_Simul_Util = 0.000119 
issued_two_Eff = 0.003076 
queue_avg = 1.470658 


dram_util_bins: 0 0 0 0 0 0 0 0 0 0
dram_eff_bins: 0 0 0 0 0 0 0 0 0 0
mrqq: max=64 avg=1.47066

========= L2 cache stats =========
L2_cache_bank[0]: Access = 158322, Miss = 25126, Miss_rate = 0.159, Pending_hits = 9989, Reservation_fails = 9037
L2_cache_bank[1]: Access = 190140, Miss = 33668, Miss_rate = 0.177, Pending_hits = 13517, Reservation_fails = 11386
L2_cache_bank[2]: Access = 174676, Miss = 30710, Miss_rate = 0.176, Pending_hits = 12734, Reservation_fails = 10650
L2_cache_bank[3]: Access = 201636, Miss = 36070, Miss_rate = 0.179, Pending_hits = 14061, Reservation_fails = 15100
L2_cache_bank[4]: Access = 187992, Miss = 33860, Miss_rate = 0.180, Pending_hits = 13255, Reservation_fails = 9657
L2_cache_bank[5]: Access = 159096, Miss = 24942, Miss_rate = 0.157, Pending_hits = 10102, Reservation_fails = 11689
L2_cache_bank[6]: Access = 199476, Miss = 36254, Miss_rate = 0.182, Pending_hits = 13435, Reservation_fails = 10052
L2_cache_bank[7]: Access = 176824, Miss = 30566, Miss_rate = 0.173, Pending_hits = 12679, Reservation_fails = 11726
L2_cache_bank[8]: Access = 156504, Miss = 24956, Miss_rate = 0.159, Pending_hits = 9696, Reservation_fails = 8371
L2_cache_bank[9]: Access = 188516, Miss = 33582, Miss_rate = 0.178, Pending_hits = 13269, Reservation_fails = 10215
L2_cache_bank[10]: Access = 175652, Miss = 30580, Miss_rate = 0.174, Pending_hits = 12462, Reservation_fails = 10143
L2_cache_bank[11]: Access = 198648, Miss = 34106, Miss_rate = 0.172, Pending_hits = 12891, Reservation_fails = 8383
L2_total_cache_accesses = 2167482
L2_total_cache_misses = 374420
L2_total_cache_miss_rate = 0.1727
L2_total_cache_pending_hits = 148090
L2_total_cache_reservation_fails = 126409
L2_total_cache_breakdown:
	L2_cache_stats_breakdown[GLOBAL_ACC_R][HIT] = 339961
	L2_cache_stats_breakdown[GLOBAL_ACC_R][HIT_RESERVED] = 8207
	L2_cache_stats_breakdown[GLOBAL_ACC_R][MISS] = 5793
	L2_cache_stats_breakdown[GLOBAL_ACC_R][RESERVATION_FAIL] = 481
	L2_cache_stats_breakdown[GLOBAL_ACC_R][SECTOR_MISS] = 17379
	L2_cache_stats_breakdown[GLOBAL_ACC_R][MSHR_HIT] = 8207
	L2_cache_stats_breakdown[LOCAL_ACC_R][HIT] = 0
	L2_cache_stats_breakdown[LOCAL_ACC_R][HIT_RESERVED] = 0
	L2_cache_stats_breakdown[LOCAL_ACC_R][MISS] = 0
	L2_cache_stats_breakdown[LOCAL_ACC_R][RESERVATION_FAIL] = 0
	L2_cache_stats_breakdown[LOCAL_ACC_R][SECTOR_MISS] = 0
	L2_cache_stats_breakdown[LOCAL_ACC_R][MSHR_HIT] = 0
	L2_cache_stats_breakdown[CONST_ACC_R][HIT] = 0
	L2_cache_stats_breakdown[CONST_ACC_R][HIT_RESERVED] = 0
	L2_cache_stats_breakdown[CONST_ACC_R][MISS] = 0
	L2_cache_stats_breakdown[CONST_ACC_R][RESERVATION_FAIL] = 0
	L2_cache_stats_breakdown[CONST_ACC_R][SECTOR_MISS] = 0
	L2_cache_stats_breakdown[CONST_ACC_R][MSHR_HIT] = 0
	L2_cache_stats_breakdown[TEXTURE_ACC_R][HIT] = 0
	L2_cache_stats_breakdown[TEXTURE_ACC_R][HIT_RESERVED] = 0
	L2_cache_stats_breakdown[TEXTURE_ACC_R][MISS] = 0
	L2_cache_stats_breakdown[TEXTURE_ACC_R][RESERVATION_FAIL] = 0
	L2_cache_stats_breakdown[TEXTURE_ACC_R][SECTOR_MISS] = 0
	L2_cache_stats_breakdown[TEXTURE_ACC_R][MSHR_HIT] = 0
	L2_cache_stats_breakdown[GLOBAL_ACC_W][HIT] = 64226
	L2_cache_stats_breakdown[GLOBAL_ACC_W][HIT_RESERVED] = 0
	L2_cache_stats_breakdown[GLOBAL_ACC_W][MISS] = 6644
	L2_cache_stats_breakdown[GLOBAL_ACC_W][RESERVATION_FAIL] = 0
	L2_cache_stats_breakdown[GLOBAL_ACC_W][SECTOR_MISS] = 6644
	L2_cache_stats_breakdown[GLOBAL_ACC_W][MSHR_HIT] = 0
	L2_cache_stats_breakdown[LOCAL_ACC_W][HIT] = 0
	L2_cache_stats_breakdown[LOCAL_ACC_W][HIT_RESERVED] = 0
	L2_cache_stats_breakdown[LOCAL_ACC_W][MISS] = 0
	L2_cache_stats_breakdown[LOCAL_ACC_W][RESERVATION_FAIL] = 0
	L2_cache_stats_breakdown[LOCAL_ACC_W][SECTOR_MISS] = 0
	L2_cache_stats_breakdown[LOCAL_ACC_W][MSHR_HIT] = 0
	L2_cache_stats_breakdown[L1_WRBK_ACC][HIT] = 0
	L2_cache_stats_breakdown[L1_WRBK_ACC][HIT_RESERVED] = 0
	L2_cache_stats_breakdown[L1_WRBK_ACC][MISS] = 0
	L2_cache_stats_breakdown[L1_WRBK_ACC][RESERVATION_FAIL] = 0
	L2_cache_stats_breakdown[L1_WRBK_ACC][SECTOR_MISS] = 0
	L2_cache_stats_breakdown[L1_WRBK_ACC][MSHR_HIT] = 0
	L2_cache_stats_breakdown[L2_WRBK_ACC][HIT] = 0
	L2_cache_stats_breakdown[L2_WRBK_ACC][HIT_RESERVED] = 0
	L2_cache_stats_breakdown[L2_WRBK_ACC][MISS] = 0
	L2_cache_stats_breakdown[L2_WRBK_ACC][RESERVATION_FAIL] = 0
	L2_cache_stats_breakdown[L2_WRBK_ACC][SECTOR_MISS] = 0
	L2_cache_stats_breakdown[L2_WRBK_ACC][MSHR_HIT] = 0
	L2_cache_stats_breakdown[INST_ACC_R][HIT] = 49027
	L2_cache_stats_breakdown[INST_ACC_R][HIT_RESERVED] = 1273
	L2_cache_stats_breakdown[INST_ACC_R][MISS] = 176
	L2_cache_stats_breakdown[INST_ACC_R][RESERVATION_FAIL] = 11332
	L2_cache_stats_breakdown[INST_ACC_R][SECTOR_MISS] = 528
	L2_cache_stats_breakdown[INST_ACC_R][MSHR_HIT] = 1273
	L2_cache_stats_breakdown[L1_WR_ALLOC_R][HIT] = 0
	L2_cache_stats_breakdown[L1_WR_ALLOC_R][HIT_RESERVED] = 0
	L2_cache_stats_breakdown[L1_WR_ALLOC_R][MISS] = 0
	L2_cache_stats_breakdown[L1_WR_ALLOC_R][RESERVATION_FAIL] = 0
	L2_cache_stats_breakdown[L1_WR_ALLOC_R][SECTOR_MISS] = 0
	L2_cache_stats_breakdown[L1_WR_ALLOC_R][MSHR_HIT] = 0
	L2_cache_stats_breakdown[L2_WR_ALLOC_R][HIT] = 0
	L2_cache_stats_breakdown[L2_WR_ALLOC_R][HIT_RESERVED] = 0
	L2_cache_stats_breakdown[L2_WR_ALLOC_R][MISS] = 0
	L2_cache_stats_breakdown[L2_WR_ALLOC_R][RESERVATION_FAIL] = 0
	L2_cache_stats_breakdown[L2_WR_ALLOC_R][SECTOR_MISS] = 0
	L2_cache_stats_breakdown[L2_WR_ALLOC_R][MSHR_HIT] = 0
	L2_cache_stats_breakdown[GLOBAL_ACC_R][TOTAL_ACCESS] = 371340
	L2_cache_stats_breakdown[GLOBAL_ACC_W][TOTAL_ACCESS] = 77514
	L2_cache_stats_breakdown[INST_ACC_R][TOTAL_ACCESS] = 51004
L2_total_cache_reservation_fail_breakdown:
	L2_cache_stats_fail_breakdown[GLOBAL_ACC_R][MISS_QUEUE_FULL] = 233
	L2_cache_stats_fail_breakdown[GLOBAL_ACC_R][MSHR_MERGE_ENRTY_FAIL] = 248
	L2_cache_stats_fail_breakdown[INST_ACC_R][MSHR_MERGE_ENRTY_FAIL] = 11332
L2_cache_data_port_util = 0.062
L2_cache_fill_port_util = 0.010

icnt_total_pkts_mem_to_simt=2167482
icnt_total_pkts_simt_to_mem=815646
LD_mem_lat_dist  0 0 0 0 0 0 0 0 0 0 0 0 0 0 0 0 0 0 0 0 0 0 0 0 0 0 0
ST_mem_lat_dist  0 0 0 0 0 0 0 0 0 0 0 0 0 0 0 0 0 0 0 0 0 0 0 0 0 0 0
----------------------------Interconnect-DETAILS--------------------------------
Class 0:
Packet latency average = 5.35484
	minimum = 5
	maximum = 12
Network latency average = 5.09677
	minimum = 5
	maximum = 6
Slowest packet = 2800567
Flit latency average = 5
	minimum = 5
	maximum = 5
Slowest flit = 2982958
Fragmentation average = 0
	minimum = 0
	maximum = 0
Injected packet rate average = 0.000221505
	minimum = 0 (at node 0)
	maximum = 0.00146622 (at node 21)
Accepted packet rate average = 0.000221505
	minimum = 0 (at node 0)
	maximum = 0.004553 (at node 13)
Injected flit rate average = 0.000242941
	minimum = 0 (at node 0)
	maximum = 0.00200641 (at node 13)
Accepted flit rate average= 0.000242941
	minimum = 0 (at node 0)
	maximum = 0.004553 (at node 13)
Injected packet length average = 1.09677
Accepted packet length average = 1.09677
Total in-flight flits = 0 (0 measured)
====== Overall Traffic Statistics ======
====== Traffic class 0 ======
Packet latency average = 20.8728 (94 samples)
	minimum = 5 (94 samples)
	maximum = 205.17 (94 samples)
Network latency average = 19.6478 (94 samples)
	minimum = 5 (94 samples)
	maximum = 202.5 (94 samples)
Flit latency average = 18.8544 (94 samples)
	minimum = 5 (94 samples)
	maximum = 202.053 (94 samples)
Fragmentation average = 0.0021471 (94 samples)
	minimum = 0 (94 samples)
	maximum = 51.9574 (94 samples)
Injected packet rate average = 0.0575905 (94 samples)
	minimum = 0.016807 (94 samples)
	maximum = 0.167565 (94 samples)
Accepted packet rate average = 0.0575905 (94 samples)
	minimum = 0.0165593 (94 samples)
	maximum = 0.0959526 (94 samples)
Injected flit rate average = 0.0612923 (94 samples)
	minimum = 0.0218076 (94 samples)
	maximum = 0.167817 (94 samples)
Accepted flit rate average = 0.0612923 (94 samples)
	minimum = 0.022064 (94 samples)
	maximum = 0.095984 (94 samples)
Injected packet size average = 1.06428 (94 samples)
Accepted packet size average = 1.06428 (94 samples)
Hops average = 1 (94 samples)
----------------------------END-of-Interconnect-DETAILS-------------------------


gpgpu_simulation_time = 0 days, 2 hrs, 6 min, 52 sec (7612 sec)
gpgpu_simulation_rate = 33943 (inst/sec)
gpgpu_simulation_rate = 303 (cycle/sec)
gpgpu_silicon_slowdown = 3300330x
Time consumed(ms): 7611410.378000
After LUD
>>>Verify<<<<
GPGPU-Sim: *** exit detected ***
